* NGSPICE file created from fsm_flat.ext - technology: ihp-sg13g2

.subckt fsm_flat Timer_en adc_en clk_gating_en power_on sc_en timer_done tx_start
+ uart_busy uart_done uart_en adc_done adc_start clk reset wake_up_sg VDD VSS
N0 VSS VDD VSS VSS sg13g2_lv_nmos ad=0.1428p pd=1.52u as=2.28077n ps=0.01084 w=0.42u l=1u
N1 VDD VSS VDD VDD sg13g2_lv_pmos ad=0.34p pd=2.68u as=3.17827n ps=0.01242 w=1u l=1u
N2 VDD VSS VDD VDD sg13g2_lv_pmos ad=0.19p pd=1.38u as=0 ps=0 w=1u l=1u
N3 VDD VSS VDD VDD sg13g2_lv_pmos ad=0.19p pd=1.38u as=0 ps=0 w=1u l=1u
N4 VDD VSS VDD VDD sg13g2_lv_pmos ad=0.19p pd=1.38u as=0 ps=0 w=1u l=1u
N5 VSS VDD VSS VSS sg13g2_lv_nmos ad=0.1428p pd=1.52u as=0 ps=0 w=0.42u l=1u
N6 VSS a_16048_15454# a_15697_15311# VSS sg13g2_lv_nmos ad=79.8f pd=0.8u as=0.1428p ps=1.52u w=0.42u l=0.13u
N7 VDD VSS VDD VDD sg13g2_lv_pmos ad=0.34p pd=2.68u as=0 ps=0 w=1u l=1u
N8 VSS VDD VSS VSS sg13g2_lv_nmos ad=0.1428p pd=1.52u as=0 ps=0 w=0.42u l=1u
N9 VDD VSS VDD VDD sg13g2_lv_pmos ad=0.19p pd=1.38u as=0 ps=0 w=1u l=1u
N10 VDD VSS VDD VDD sg13g2_lv_pmos ad=0.19p pd=1.38u as=0 ps=0 w=1u l=1u
N11 VSS VDD VSS VSS sg13g2_lv_nmos ad=0.1428p pd=1.52u as=0 ps=0 w=0.42u l=1u
N12 VDD VSS VDD VDD sg13g2_lv_pmos ad=0.19p pd=1.38u as=0 ps=0 w=1u l=1u
N13 VDD VSS VDD VDD sg13g2_lv_pmos ad=0.19p pd=1.38u as=0 ps=0 w=1u l=1u
N14 VSS VDD VSS VSS sg13g2_lv_nmos ad=79.8f pd=0.8u as=0 ps=0 w=0.42u l=1u
N15 VDD VSS VDD VDD sg13g2_lv_pmos ad=0.34p pd=2.68u as=0 ps=0 w=1u l=1u
N16 VSS VDD VSS VSS sg13g2_lv_nmos ad=79.8f pd=0.8u as=0 ps=0 w=0.42u l=1u
N17 a_14697_16043# a_14340_16000# VDD VDD sg13g2_lv_pmos ad=63f pd=0.72u as=0.1563p ps=1.22u w=0.42u l=0.13u
N18 VDD VSS VDD VDD sg13g2_lv_pmos ad=0.34p pd=2.68u as=0 ps=0 w=1u l=1u
N19 VSS VDD VSS VSS sg13g2_lv_nmos ad=0.1428p pd=1.52u as=0 ps=0 w=0.42u l=1u
N20 VSS VDD VSS VSS sg13g2_lv_nmos ad=79.8f pd=0.8u as=0 ps=0 w=0.42u l=1u
N21 VSS VDD VSS VSS sg13g2_lv_nmos ad=79.8f pd=0.8u as=0 ps=0 w=0.42u l=1u
N22 a_14054_16434# sg13g2_inv_1_1.Y VDD VDD sg13g2_lv_pmos ad=79.8f pd=0.8u as=0.1428p ps=1.52u w=0.42u l=0.13u
N23 VDD VSS VDD VDD sg13g2_lv_pmos ad=0.19p pd=1.38u as=0 ps=0 w=1u l=1u
N24 VDD VSS VDD VDD sg13g2_lv_pmos ad=0.34p pd=2.68u as=0 ps=0 w=1u l=1u
N25 a_11654_13722# a_12459_13844# a_11914_13945# VDD sg13g2_lv_pmos ad=0.1428p pd=1.52u as=79.8f ps=0.8u w=0.42u l=0.13u
N26 VSS sg13g2_a21oi_1_0.A1 a_14248_23556# VSS sg13g2_lv_nmos ad=0.14875p pd=1.16u as=0.187p ps=1.78u w=0.55u l=0.13u
N27 VDD VSS VDD VDD sg13g2_lv_pmos ad=0.19p pd=1.38u as=0 ps=0 w=1u l=1u
N28 VSS VDD VSS VSS sg13g2_lv_nmos ad=79.8f pd=0.8u as=0 ps=0 w=0.42u l=1u
N29 VDD sg13g2_inv_1_0.Y a_12394_14452# VDD sg13g2_lv_pmos ad=0.1563p pd=1.22u as=0.147p ps=1.54u w=0.42u l=0.13u
N30 VSS VDD VSS VSS sg13g2_lv_nmos ad=0.1428p pd=1.52u as=0 ps=0 w=0.42u l=1u
N31 VDD VSS VDD VDD sg13g2_lv_pmos ad=0.34p pd=2.68u as=0 ps=0 w=1u l=1u
N32 VSS VDD VSS VSS sg13g2_lv_nmos ad=79.8f pd=0.8u as=0 ps=0 w=0.42u l=1u
N33 VSS VDD VSS VSS sg13g2_lv_nmos ad=79.8f pd=0.8u as=0 ps=0 w=0.42u l=1u
N34 a_16048_13942# sg13g2_inv_1_0.Y a_16108_14037# VDD sg13g2_lv_pmos ad=79.8f pd=0.8u as=0.204p ps=1.835u w=0.42u l=0.13u
N35 VDD VSS VDD VDD sg13g2_lv_pmos ad=0.34p pd=2.68u as=0 ps=0 w=1u l=1u
N36 VSS VDD VSS VSS sg13g2_lv_nmos ad=79.8f pd=0.8u as=0 ps=0 w=0.42u l=1u
N37 VSS VDD VSS VSS sg13g2_lv_nmos ad=79.8f pd=0.8u as=0 ps=0 w=0.42u l=1u
N38 VSS VDD VSS VSS sg13g2_lv_nmos ad=0.1428p pd=1.52u as=0 ps=0 w=0.42u l=1u
N39 VSS VDD VSS VSS sg13g2_lv_nmos ad=79.8f pd=0.8u as=0 ps=0 w=0.42u l=1u
N40 VDD VSS VDD VDD sg13g2_lv_pmos ad=0.34p pd=2.68u as=0 ps=0 w=1u l=1u
N41 VDD VSS VDD VDD sg13g2_lv_pmos ad=0.19p pd=1.38u as=0 ps=0 w=1u l=1u
N42 VSS VDD VSS VSS sg13g2_lv_nmos ad=0.1428p pd=1.52u as=0 ps=0 w=0.42u l=1u
N43 VSS VDD VSS VSS sg13g2_lv_nmos ad=79.8f pd=0.8u as=0 ps=0 w=0.42u l=1u
N44 VSS VDD VSS VSS sg13g2_lv_nmos ad=79.8f pd=0.8u as=0 ps=0 w=0.42u l=1u
N45 VDD VSS VDD VDD sg13g2_lv_pmos ad=0.19p pd=1.38u as=0 ps=0 w=1u l=1u
N46 VDD VSS VDD VDD sg13g2_lv_pmos ad=0.19p pd=1.38u as=0 ps=0 w=1u l=1u
N47 VSS VDD VSS VSS sg13g2_lv_nmos ad=79.8f pd=0.8u as=0 ps=0 w=0.42u l=1u
N48 VSS VDD VSS VSS sg13g2_lv_nmos ad=79.8f pd=0.8u as=0 ps=0 w=0.42u l=1u
N49 VSS VDD VSS VSS sg13g2_lv_nmos ad=79.8f pd=0.8u as=0 ps=0 w=0.42u l=1u
N50 VDD VSS VDD VDD sg13g2_lv_pmos ad=0.19p pd=1.38u as=0 ps=0 w=1u l=1u
N51 VDD VSS VDD VDD sg13g2_lv_pmos ad=0.19p pd=1.38u as=0 ps=0 w=1u l=1u
N52 VSS VDD VSS VSS sg13g2_lv_nmos ad=0.1428p pd=1.52u as=0 ps=0 w=0.42u l=1u
N53 VSS VDD VSS VSS sg13g2_lv_nmos ad=0.1428p pd=1.52u as=0 ps=0 w=0.42u l=1u
N54 VDD VSS VDD VDD sg13g2_lv_pmos ad=0.34p pd=2.68u as=0 ps=0 w=1u l=1u
N55 VSS VDD VSS VSS sg13g2_lv_nmos ad=79.8f pd=0.8u as=0 ps=0 w=0.42u l=1u
N56 VDD VSS VDD VDD sg13g2_lv_pmos ad=0.34p pd=2.68u as=0 ps=0 w=1u l=1u
N57 VDD VSS VDD VDD sg13g2_lv_pmos ad=0.19p pd=1.38u as=0 ps=0 w=1u l=1u
N58 VDD VSS VDD VDD sg13g2_lv_pmos ad=0.34p pd=2.68u as=0 ps=0 w=1u l=1u
N59 VSS VDD VSS VSS sg13g2_lv_nmos ad=0.1428p pd=1.52u as=0 ps=0 w=0.42u l=1u
N60 VDD VSS VDD VDD sg13g2_lv_pmos ad=0.19p pd=1.38u as=0 ps=0 w=1u l=1u
N61 VSS VDD VSS VSS sg13g2_lv_nmos ad=0.1428p pd=1.52u as=0 ps=0 w=0.42u l=1u
N62 VSS VDD VSS VSS sg13g2_lv_nmos ad=0.1428p pd=1.52u as=0 ps=0 w=0.42u l=1u
N63 VDD VSS VDD VDD sg13g2_lv_pmos ad=0.34p pd=2.68u as=0 ps=0 w=1u l=1u
N64 VDD VSS VDD VDD sg13g2_lv_pmos ad=0.34p pd=2.68u as=0 ps=0 w=1u l=1u
N65 VDD VSS VDD VDD sg13g2_lv_pmos ad=0.34p pd=2.68u as=0 ps=0 w=1u l=1u
N66 VSS VDD VSS VSS sg13g2_lv_nmos ad=0.1428p pd=1.52u as=0 ps=0 w=0.42u l=1u
N67 a_13297_14486# a_12837_14495# a_12939_14495# VDD sg13g2_lv_pmos ad=0.41165p pd=2.12u as=0.3864p ps=2.93u w=1.12u l=0.13u
N68 VSS VDD VSS VSS sg13g2_lv_nmos ad=79.8f pd=0.8u as=0 ps=0 w=0.42u l=1u
N69 VDD VSS VDD VDD sg13g2_lv_pmos ad=0.19p pd=1.38u as=0 ps=0 w=1u l=1u
N70 VSS VDD VSS VSS sg13g2_lv_nmos ad=79.8f pd=0.8u as=0 ps=0 w=0.42u l=1u
N71 VDD VSS VDD VDD sg13g2_lv_pmos ad=0.34p pd=2.68u as=0 ps=0 w=1u l=1u
N72 VSS VDD VSS VSS sg13g2_lv_nmos ad=0.1428p pd=1.52u as=0 ps=0 w=0.42u l=1u
N73 VSS VDD VSS VSS sg13g2_lv_nmos ad=79.8f pd=0.8u as=0 ps=0 w=0.42u l=1u
N74 VDD VSS VDD VDD sg13g2_lv_pmos ad=0.19p pd=1.38u as=0 ps=0 w=1u l=1u
N75 VDD VSS VDD VDD sg13g2_lv_pmos ad=0.19p pd=1.38u as=0 ps=0 w=1u l=1u
N76 VSS VDD VSS VSS sg13g2_lv_nmos ad=0.1428p pd=1.52u as=0 ps=0 w=0.42u l=1u
N77 VDD VSS VDD VDD sg13g2_lv_pmos ad=0.19p pd=1.38u as=0 ps=0 w=1u l=1u
N78 VSS VDD VSS VSS sg13g2_lv_nmos ad=79.8f pd=0.8u as=0 ps=0 w=0.42u l=1u
N79 VDD VSS VDD VDD sg13g2_lv_pmos ad=0.19p pd=1.38u as=0 ps=0 w=1u l=1u
N80 VDD VSS VDD VDD sg13g2_lv_pmos ad=0.19p pd=1.38u as=0 ps=0 w=1u l=1u
N81 VDD VSS VDD VDD sg13g2_lv_pmos ad=0.34p pd=2.68u as=0 ps=0 w=1u l=1u
N82 VSS VDD VSS VSS sg13g2_lv_nmos ad=79.8f pd=0.8u as=0 ps=0 w=0.42u l=1u
N83 VDD VSS VDD VDD sg13g2_lv_pmos ad=0.19p pd=1.38u as=0 ps=0 w=1u l=1u
N84 VDD VSS VDD VDD sg13g2_lv_pmos ad=0.19p pd=1.38u as=0 ps=0 w=1u l=1u
N85 VSS VDD VSS VSS sg13g2_lv_nmos ad=79.8f pd=0.8u as=0 ps=0 w=0.42u l=1u
N86 VSS VDD VSS VSS sg13g2_lv_nmos ad=79.8f pd=0.8u as=0 ps=0 w=0.42u l=1u
N87 VSS VDD VSS VSS sg13g2_lv_nmos ad=79.8f pd=0.8u as=0 ps=0 w=0.42u l=1u
N88 VSS VDD VSS VSS sg13g2_lv_nmos ad=79.8f pd=0.8u as=0 ps=0 w=0.42u l=1u
N89 VSS VDD VSS VSS sg13g2_lv_nmos ad=79.8f pd=0.8u as=0 ps=0 w=0.42u l=1u
N90 VDD VSS VDD VDD sg13g2_lv_pmos ad=0.19p pd=1.38u as=0 ps=0 w=1u l=1u
N91 VSS VDD VSS VSS sg13g2_lv_nmos ad=79.8f pd=0.8u as=0 ps=0 w=0.42u l=1u
N92 VDD VSS VDD VDD sg13g2_lv_pmos ad=0.19p pd=1.38u as=0 ps=0 w=1u l=1u
N93 VDD VSS VDD VDD sg13g2_lv_pmos ad=0.19p pd=1.38u as=0 ps=0 w=1u l=1u
N94 VSS VDD VSS VSS sg13g2_lv_nmos ad=79.8f pd=0.8u as=0 ps=0 w=0.42u l=1u
N95 VDD VSS VDD VDD sg13g2_lv_pmos ad=0.34p pd=2.68u as=0 ps=0 w=1u l=1u
N96 VDD VSS VDD VDD sg13g2_lv_pmos ad=0.19p pd=1.38u as=0 ps=0 w=1u l=1u
N97 VSS VDD VSS VSS sg13g2_lv_nmos ad=79.8f pd=0.8u as=0 ps=0 w=0.42u l=1u
N98 VDD VSS VDD VDD sg13g2_lv_pmos ad=0.19p pd=1.38u as=0 ps=0 w=1u l=1u
N99 VSS VDD VSS VSS sg13g2_lv_nmos ad=79.8f pd=0.8u as=0 ps=0 w=0.42u l=1u
N100 VSS VDD VSS VSS sg13g2_lv_nmos ad=79.8f pd=0.8u as=0 ps=0 w=0.42u l=1u
N101 VSS VDD VSS VSS sg13g2_lv_nmos ad=0.1428p pd=1.52u as=0 ps=0 w=0.42u l=1u
N102 VDD VSS VDD VDD sg13g2_lv_pmos ad=0.19p pd=1.38u as=0 ps=0 w=1u l=1u
N103 VDD VSS VDD VDD sg13g2_lv_pmos ad=0.34p pd=2.68u as=0 ps=0 w=1u l=1u
N104 VSS VDD VSS VSS sg13g2_lv_nmos ad=0.1428p pd=1.52u as=0 ps=0 w=0.42u l=1u
N105 sg13g2_inv_2_1.A a_17800_15272# VDD VDD sg13g2_lv_pmos ad=0.42p pd=2.99u as=0.2114p ps=1.54u w=1.12u l=0.13u
N106 VDD VSS VDD VDD sg13g2_lv_pmos ad=0.19p pd=1.38u as=0 ps=0 w=1u l=1u
N107 VDD VSS VDD VDD sg13g2_lv_pmos ad=0.34p pd=2.68u as=0 ps=0 w=1u l=1u
N108 VSS VDD VSS VSS sg13g2_lv_nmos ad=0.1428p pd=1.52u as=0 ps=0 w=0.42u l=1u
N109 VDD VSS VDD VDD sg13g2_lv_pmos ad=0.34p pd=2.68u as=0 ps=0 w=1u l=1u
N110 VSS VDD VSS VSS sg13g2_lv_nmos ad=79.8f pd=0.8u as=0 ps=0 w=0.42u l=1u
N111 a_14340_13722# sg13g2_and2_1_0.X a_14246_13722# VSS sg13g2_lv_nmos ad=60.89999f pd=0.71u as=0.1428p ps=1.52u w=0.42u l=0.13u
N112 VDD VSS VDD VDD sg13g2_lv_pmos ad=0.34p pd=2.68u as=0 ps=0 w=1u l=1u
N113 VDD VSS VDD VDD sg13g2_lv_pmos ad=0.19p pd=1.38u as=0 ps=0 w=1u l=1u
N114 VDD VSS VDD VDD sg13g2_lv_pmos ad=0.19p pd=1.38u as=0 ps=0 w=1u l=1u
N115 VDD VSS VDD VDD sg13g2_lv_pmos ad=0.34p pd=2.68u as=0 ps=0 w=1u l=1u
N116 VSS VDD VSS VSS sg13g2_lv_nmos ad=0.1428p pd=1.52u as=0 ps=0 w=0.42u l=1u
N117 VDD VSS VDD VDD sg13g2_lv_pmos ad=0.34p pd=2.68u as=0 ps=0 w=1u l=1u
N118 VSS VDD VSS VSS sg13g2_lv_nmos ad=0.1428p pd=1.52u as=0 ps=0 w=0.42u l=1u
N119 VSS VDD VSS VSS sg13g2_lv_nmos ad=0.1428p pd=1.52u as=0 ps=0 w=0.42u l=1u
N120 VDD VSS VDD VDD sg13g2_lv_pmos ad=0.19p pd=1.38u as=0 ps=0 w=1u l=1u
N121 VDD VSS VDD VDD sg13g2_lv_pmos ad=0.34p pd=2.68u as=0 ps=0 w=1u l=1u
N122 VDD VSS VDD VDD sg13g2_lv_pmos ad=0.34p pd=2.68u as=0 ps=0 w=1u l=1u
N123 VDD VSS VDD VDD sg13g2_lv_pmos ad=0.34p pd=2.68u as=0 ps=0 w=1u l=1u
N124 VDD VSS VDD VDD sg13g2_lv_pmos ad=0.34p pd=2.68u as=0 ps=0 w=1u l=1u
N125 VDD VSS VDD VDD sg13g2_lv_pmos ad=0.34p pd=2.68u as=0 ps=0 w=1u l=1u
N126 VDD VSS VDD VDD sg13g2_lv_pmos ad=0.19p pd=1.38u as=0 ps=0 w=1u l=1u
N127 a_15217_16349# a_14757_16007# a_14859_16007# VSS sg13g2_lv_nmos ad=0.31732p pd=1.805u as=0.2516p ps=2.16u w=0.74u l=0.13u
N128 VSS VDD VSS VSS sg13g2_lv_nmos ad=79.8f pd=0.8u as=0 ps=0 w=0.42u l=1u
N129 VSS adc_done a_17800_15272# VSS sg13g2_lv_nmos ad=0.14875p pd=1.16u as=0.187p ps=1.78u w=0.55u l=0.13u
N130 VSS VDD VSS VSS sg13g2_lv_nmos ad=0.1428p pd=1.52u as=0 ps=0 w=0.42u l=1u
N131 VSS VDD VSS VSS sg13g2_lv_nmos ad=0.1428p pd=1.52u as=0 ps=0 w=0.42u l=1u
N132 VSS VDD VSS VSS sg13g2_lv_nmos ad=79.8f pd=0.8u as=0 ps=0 w=0.42u l=1u
N133 VSS VDD VSS VSS sg13g2_lv_nmos ad=0.1428p pd=1.52u as=0 ps=0 w=0.42u l=1u
N134 VSS VDD VSS VSS sg13g2_lv_nmos ad=0.1428p pd=1.52u as=0 ps=0 w=0.42u l=1u
N135 VDD VSS VDD VDD sg13g2_lv_pmos ad=0.34p pd=2.68u as=0 ps=0 w=1u l=1u
N136 VSS VDD VSS VSS sg13g2_lv_nmos ad=79.8f pd=0.8u as=0 ps=0 w=0.42u l=1u
N137 a_12708_14909# a_12420_14488# a_12646_14909# VSS sg13g2_lv_nmos ad=0.1428p pd=1.52u as=37.8f ps=0.6u w=0.42u l=0.13u
N138 VSS VDD VSS VSS sg13g2_lv_nmos ad=0.1428p pd=1.52u as=0 ps=0 w=0.42u l=1u
N139 VDD VSS VDD VDD sg13g2_lv_pmos ad=0.19p pd=1.38u as=0 ps=0 w=1u l=1u
N140 VDD VSS VDD VDD sg13g2_lv_pmos ad=0.34p pd=2.68u as=0 ps=0 w=1u l=1u
N141 VSS VDD VSS VSS sg13g2_lv_nmos ad=79.8f pd=0.8u as=0 ps=0 w=0.42u l=1u
N142 VSS VDD VSS VSS sg13g2_lv_nmos ad=79.8f pd=0.8u as=0 ps=0 w=0.42u l=1u
N143 VSS VDD VSS VSS sg13g2_lv_nmos ad=79.8f pd=0.8u as=0 ps=0 w=0.42u l=1u
N144 VDD VSS VDD VDD sg13g2_lv_pmos ad=0.19p pd=1.38u as=0 ps=0 w=1u l=1u
N145 VDD VSS VDD VDD sg13g2_lv_pmos ad=0.19p pd=1.38u as=0 ps=0 w=1u l=1u
N146 VSS VDD VSS VSS sg13g2_lv_nmos ad=79.8f pd=0.8u as=0 ps=0 w=0.42u l=1u
N147 VSS VDD VSS VSS sg13g2_lv_nmos ad=0.1428p pd=1.52u as=0 ps=0 w=0.42u l=1u
N148 VDD VSS VDD VDD sg13g2_lv_pmos ad=0.19p pd=1.38u as=0 ps=0 w=1u l=1u
N149 VSS VDD VSS VSS sg13g2_lv_nmos ad=79.8f pd=0.8u as=0 ps=0 w=0.42u l=1u
N150 VDD VSS VDD VDD sg13g2_lv_pmos ad=0.19p pd=1.38u as=0 ps=0 w=1u l=1u
N151 VSS VDD VSS VSS sg13g2_lv_nmos ad=0.1428p pd=1.52u as=0 ps=0 w=0.42u l=1u
N152 VSS VDD VSS VSS sg13g2_lv_nmos ad=79.8f pd=0.8u as=0 ps=0 w=0.42u l=1u
N153 VDD VSS VDD VDD sg13g2_lv_pmos ad=0.34p pd=2.68u as=0 ps=0 w=1u l=1u
N154 VDD VSS VDD VDD sg13g2_lv_pmos ad=0.19p pd=1.38u as=0 ps=0 w=1u l=1u
N155 VSS VDD VSS VSS sg13g2_lv_nmos ad=0.1428p pd=1.52u as=0 ps=0 w=0.42u l=1u
N156 VSS VDD VSS VSS sg13g2_lv_nmos ad=0.1428p pd=1.52u as=0 ps=0 w=0.42u l=1u
N157 VSS VDD VSS VSS sg13g2_lv_nmos ad=79.8f pd=0.8u as=0 ps=0 w=0.42u l=1u
N158 VDD VSS VDD VDD sg13g2_lv_pmos ad=0.19p pd=1.38u as=0 ps=0 w=1u l=1u
N159 VSS VDD VSS VSS sg13g2_lv_nmos ad=79.8f pd=0.8u as=0 ps=0 w=0.42u l=1u
N160 VSS VDD VSS VSS sg13g2_lv_nmos ad=79.8f pd=0.8u as=0 ps=0 w=0.42u l=1u
N161 VDD VSS VDD VDD sg13g2_lv_pmos ad=0.19p pd=1.38u as=0 ps=0 w=1u l=1u
N162 VDD VSS VDD VDD sg13g2_lv_pmos ad=0.19p pd=1.38u as=0 ps=0 w=1u l=1u
N163 VDD VSS VDD VDD sg13g2_lv_pmos ad=0.19p pd=1.38u as=0 ps=0 w=1u l=1u
N164 VSS VDD VSS VSS sg13g2_lv_nmos ad=0.1428p pd=1.52u as=0 ps=0 w=0.42u l=1u
N165 VDD VSS VDD VDD sg13g2_lv_pmos ad=0.19p pd=1.38u as=0 ps=0 w=1u l=1u
N166 VSS VDD VSS VSS sg13g2_lv_nmos ad=0.1428p pd=1.52u as=0 ps=0 w=0.42u l=1u
N167 VDD VSS VDD VDD sg13g2_lv_pmos ad=0.19p pd=1.38u as=0 ps=0 w=1u l=1u
N168 a_14340_16000# a_14314_15964# VDD VDD sg13g2_lv_pmos ad=0.34p pd=2.68u as=0.36237p ps=2.605u w=1u l=0.13u
N169 VDD VSS VDD VDD sg13g2_lv_pmos ad=0.34p pd=2.68u as=0 ps=0 w=1u l=1u
N170 VSS VDD VSS VSS sg13g2_lv_nmos ad=79.8f pd=0.8u as=0 ps=0 w=0.42u l=1u
N171 sg13g2_buf_1_5.X a_14152_10736# VSS VSS sg13g2_lv_nmos ad=0.2886p pd=2.26u as=0.14875p ps=1.16u w=0.74u l=0.13u
N172 VSS VDD VSS VSS sg13g2_lv_nmos ad=79.8f pd=0.8u as=0 ps=0 w=0.42u l=1u
N173 VSS VDD VSS VSS sg13g2_lv_nmos ad=0.1428p pd=1.52u as=0 ps=0 w=0.42u l=1u
N174 VDD VSS VDD VDD sg13g2_lv_pmos ad=0.19p pd=1.38u as=0 ps=0 w=1u l=1u
N175 VSS VDD VSS VSS sg13g2_lv_nmos ad=0.1428p pd=1.52u as=0 ps=0 w=0.42u l=1u
N176 VDD VSS VDD VDD sg13g2_lv_pmos ad=0.19p pd=1.38u as=0 ps=0 w=1u l=1u
N177 VSS VDD VSS VSS sg13g2_lv_nmos ad=0.1428p pd=1.52u as=0 ps=0 w=0.42u l=1u
N178 VSS VDD VSS VSS sg13g2_lv_nmos ad=79.8f pd=0.8u as=0 ps=0 w=0.42u l=1u
N179 VSS VDD VSS VSS sg13g2_lv_nmos ad=0.1428p pd=1.52u as=0 ps=0 w=0.42u l=1u
N180 VDD VSS VDD VDD sg13g2_lv_pmos ad=0.19p pd=1.38u as=0 ps=0 w=1u l=1u
N181 VSS VDD VSS VSS sg13g2_lv_nmos ad=0.1428p pd=1.52u as=0 ps=0 w=0.42u l=1u
N182 VDD VSS VDD VDD sg13g2_lv_pmos ad=0.34p pd=2.68u as=0 ps=0 w=1u l=1u
N183 VSS VDD VSS VSS sg13g2_lv_nmos ad=0.1428p pd=1.52u as=0 ps=0 w=0.42u l=1u
N184 VDD VSS VDD VDD sg13g2_lv_pmos ad=0.34p pd=2.68u as=0 ps=0 w=1u l=1u
N185 sg13g2_a21oi_1_0.A1 a_14538_17044# VSS VSS sg13g2_lv_nmos ad=0.2516p pd=2.16u as=0.1406p ps=1.12u w=0.74u l=0.13u
N186 sg13g2_inv_1_1.A sg13g2_a22oi_1_0.B2 a_16735_16388# VSS sg13g2_lv_nmos ad=0.2664p pd=1.46u as=0.13875p ps=1.115u w=0.74u l=0.13u
N187 VSS VDD VSS VSS sg13g2_lv_nmos ad=79.8f pd=0.8u as=0 ps=0 w=0.42u l=1u
N188 VDD VSS VDD VDD sg13g2_lv_pmos ad=0.19p pd=1.38u as=0 ps=0 w=1u l=1u
N189 sg13g2_dfrbpq_1_0.CLK a_7816_15996# VDD VDD sg13g2_lv_pmos ad=0.42p pd=2.99u as=0.2114p ps=1.54u w=1.12u l=0.13u
N190 VDD VSS VDD VDD sg13g2_lv_pmos ad=0.34p pd=2.68u as=0 ps=0 w=1u l=1u
N191 VSS VDD VSS VSS sg13g2_lv_nmos ad=79.8f pd=0.8u as=0 ps=0 w=0.42u l=1u
N192 VDD VSS VDD VDD sg13g2_lv_pmos ad=0.19p pd=1.38u as=0 ps=0 w=1u l=1u
N193 VDD VSS VDD VDD sg13g2_lv_pmos ad=0.19p pd=1.38u as=0 ps=0 w=1u l=1u
N194 VDD VSS VDD VDD sg13g2_lv_pmos ad=0.19p pd=1.38u as=0 ps=0 w=1u l=1u
N195 VSS VDD VSS VSS sg13g2_lv_nmos ad=79.8f pd=0.8u as=0 ps=0 w=0.42u l=1u
N196 VDD VSS VDD VDD sg13g2_lv_pmos ad=0.34p pd=2.68u as=0 ps=0 w=1u l=1u
N197 VSS VDD VSS VSS sg13g2_lv_nmos ad=79.8f pd=0.8u as=0 ps=0 w=0.42u l=1u
N198 VDD VSS VDD VDD sg13g2_lv_pmos ad=0.34p pd=2.68u as=0 ps=0 w=1u l=1u
N199 VDD VSS VDD VDD sg13g2_lv_pmos ad=0.34p pd=2.68u as=0 ps=0 w=1u l=1u
N200 VDD VSS VDD VDD sg13g2_lv_pmos ad=0.34p pd=2.68u as=0 ps=0 w=1u l=1u
N201 VDD VSS VDD VDD sg13g2_lv_pmos ad=0.19p pd=1.38u as=0 ps=0 w=1u l=1u
N202 VDD VSS VDD VDD sg13g2_lv_pmos ad=0.34p pd=2.68u as=0 ps=0 w=1u l=1u
N203 a_13936_14726# sg13g2_inv_1_0.Y a_13996_14607# VDD sg13g2_lv_pmos ad=79.8f pd=0.8u as=0.204p ps=1.835u w=0.42u l=0.13u
N204 VSS VDD VSS VSS sg13g2_lv_nmos ad=79.8f pd=0.8u as=0 ps=0 w=0.42u l=1u
N205 a_14314_15964# a_14757_16007# a_14054_16434# VSS sg13g2_lv_nmos ad=79.8f pd=0.8u as=0.1296p ps=1.52u w=0.42u l=0.13u
N206 VDD VSS VDD VDD sg13g2_lv_pmos ad=0.19p pd=1.38u as=0 ps=0 w=1u l=1u
N207 VSS VDD VSS VSS sg13g2_lv_nmos ad=79.8f pd=0.8u as=0 ps=0 w=0.42u l=1u
N208 VDD VSS VDD VDD sg13g2_lv_pmos ad=0.34p pd=2.68u as=0 ps=0 w=1u l=1u
N209 VSS VDD VSS VSS sg13g2_lv_nmos ad=79.8f pd=0.8u as=0 ps=0 w=0.42u l=1u
N210 VSS VDD VSS VSS sg13g2_lv_nmos ad=79.8f pd=0.8u as=0 ps=0 w=0.42u l=1u
N211 VDD VSS VDD VDD sg13g2_lv_pmos ad=0.34p pd=2.68u as=0 ps=0 w=1u l=1u
N212 VSS VDD VSS VSS sg13g2_lv_nmos ad=79.8f pd=0.8u as=0 ps=0 w=0.42u l=1u
N213 VSS VDD VSS VSS sg13g2_lv_nmos ad=79.8f pd=0.8u as=0 ps=0 w=0.42u l=1u
N214 VSS VDD VSS VSS sg13g2_lv_nmos ad=0.1428p pd=1.52u as=0 ps=0 w=0.42u l=1u
N215 VSS VDD VSS VSS sg13g2_lv_nmos ad=0.1428p pd=1.52u as=0 ps=0 w=0.42u l=1u
N216 VSS VDD VSS VSS sg13g2_lv_nmos ad=0.1428p pd=1.52u as=0 ps=0 w=0.42u l=1u
N217 VDD VSS VDD VDD sg13g2_lv_pmos ad=0.34p pd=2.68u as=0 ps=0 w=1u l=1u
N218 sg13g2_dfrbpq_1_5.Q a_16266_15996# VDD VDD sg13g2_lv_pmos ad=0.3808p pd=2.92u as=0.2128p ps=1.5u w=1.12u l=0.13u
N219 VSS VDD VSS VSS sg13g2_lv_nmos ad=79.8f pd=0.8u as=0 ps=0 w=0.42u l=1u
N220 VSS VDD VSS VSS sg13g2_lv_nmos ad=0.1428p pd=1.52u as=0 ps=0 w=0.42u l=1u
N221 VDD VSS VDD VDD sg13g2_lv_pmos ad=0.19p pd=1.38u as=0 ps=0 w=1u l=1u
N222 VDD VSS VDD VDD sg13g2_lv_pmos ad=0.19p pd=1.38u as=0 ps=0 w=1u l=1u
N223 VSS VDD VSS VSS sg13g2_lv_nmos ad=79.8f pd=0.8u as=0 ps=0 w=0.42u l=1u
N224 VDD VSS VDD VDD sg13g2_lv_pmos ad=0.34p pd=2.68u as=0 ps=0 w=1u l=1u
N225 VDD VSS VDD VDD sg13g2_lv_pmos ad=0.19p pd=1.38u as=0 ps=0 w=1u l=1u
N226 VDD VSS VDD VDD sg13g2_lv_pmos ad=0.19p pd=1.38u as=0 ps=0 w=1u l=1u
N227 VDD VSS VDD VDD sg13g2_lv_pmos ad=0.19p pd=1.38u as=0 ps=0 w=1u l=1u
N228 VSS VDD VSS VSS sg13g2_lv_nmos ad=79.8f pd=0.8u as=0 ps=0 w=0.42u l=1u
N229 VSS VDD VSS VSS sg13g2_lv_nmos ad=0.1428p pd=1.52u as=0 ps=0 w=0.42u l=1u
N230 VSS VDD VSS VSS sg13g2_lv_nmos ad=0.1428p pd=1.52u as=0 ps=0 w=0.42u l=1u
N231 VSS VDD VSS VSS sg13g2_lv_nmos ad=0.1428p pd=1.52u as=0 ps=0 w=0.42u l=1u
N232 VDD VSS VDD VDD sg13g2_lv_pmos ad=0.19p pd=1.38u as=0 ps=0 w=1u l=1u
N233 VSS VDD VSS VSS sg13g2_lv_nmos ad=79.8f pd=0.8u as=0 ps=0 w=0.42u l=1u
N234 VSS VDD VSS VSS sg13g2_lv_nmos ad=0.1428p pd=1.52u as=0 ps=0 w=0.42u l=1u
N235 VSS VDD VSS VSS sg13g2_lv_nmos ad=0.1428p pd=1.52u as=0 ps=0 w=0.42u l=1u
N236 VDD VSS VDD VDD sg13g2_lv_pmos ad=0.34p pd=2.68u as=0 ps=0 w=1u l=1u
N237 VDD VSS VDD VDD sg13g2_lv_pmos ad=0.34p pd=2.68u as=0 ps=0 w=1u l=1u
N238 VDD VSS VDD VDD sg13g2_lv_pmos ad=0.19p pd=1.38u as=0 ps=0 w=1u l=1u
N239 VDD VSS VDD VDD sg13g2_lv_pmos ad=0.19p pd=1.38u as=0 ps=0 w=1u l=1u
N240 VSS VDD VSS VSS sg13g2_lv_nmos ad=0.1428p pd=1.52u as=0 ps=0 w=0.42u l=1u
N241 VSS VDD VSS VSS sg13g2_lv_nmos ad=79.8f pd=0.8u as=0 ps=0 w=0.42u l=1u
N242 VDD VSS VDD VDD sg13g2_lv_pmos ad=0.19p pd=1.38u as=0 ps=0 w=1u l=1u
N243 VSS VDD VSS VSS sg13g2_lv_nmos ad=79.8f pd=0.8u as=0 ps=0 w=0.42u l=1u
N244 VSS VDD VSS VSS sg13g2_lv_nmos ad=79.8f pd=0.8u as=0 ps=0 w=0.42u l=1u
N245 VSS VDD VSS VSS sg13g2_lv_nmos ad=0.1428p pd=1.52u as=0 ps=0 w=0.42u l=1u
N246 VSS VDD VSS VSS sg13g2_lv_nmos ad=79.8f pd=0.8u as=0 ps=0 w=0.42u l=1u
N247 a_13456_13942# sg13g2_inv_1_0.Y a_13516_14037# VDD sg13g2_lv_pmos ad=79.8f pd=0.8u as=0.204p ps=1.835u w=0.42u l=0.13u
N248 VDD VSS VDD VDD sg13g2_lv_pmos ad=0.19p pd=1.38u as=0 ps=0 w=1u l=1u
N249 VDD VSS VDD VDD sg13g2_lv_pmos ad=0.34p pd=2.68u as=0 ps=0 w=1u l=1u
N250 VSS VDD VSS VSS sg13g2_lv_nmos ad=79.8f pd=0.8u as=0 ps=0 w=0.42u l=1u
N251 VDD VSS VDD VDD sg13g2_lv_pmos ad=0.19p pd=1.38u as=0 ps=0 w=1u l=1u
N252 VDD VSS VDD VDD sg13g2_lv_pmos ad=0.34p pd=2.68u as=0 ps=0 w=1u l=1u
N253 VDD VSS VDD VDD sg13g2_lv_pmos ad=0.34p pd=2.68u as=0 ps=0 w=1u l=1u
N254 VSS VDD VSS VSS sg13g2_lv_nmos ad=0.1428p pd=1.52u as=0 ps=0 w=0.42u l=1u
N255 VDD VSS VDD VDD sg13g2_lv_pmos ad=0.34p pd=2.68u as=0 ps=0 w=1u l=1u
N256 VDD VSS VDD VDD sg13g2_lv_pmos ad=0.19p pd=1.38u as=0 ps=0 w=1u l=1u
N257 VSS VDD VSS VSS sg13g2_lv_nmos ad=0.1428p pd=1.52u as=0 ps=0 w=0.42u l=1u
N258 VDD VSS VDD VDD sg13g2_lv_pmos ad=0.34p pd=2.68u as=0 ps=0 w=1u l=1u
N259 VSS VDD VSS VSS sg13g2_lv_nmos ad=79.8f pd=0.8u as=0 ps=0 w=0.42u l=1u
N260 VSS sg13g2_nor2_1_0.B sg13g2_nor2_1_0.Y VSS sg13g2_lv_nmos ad=0.2516p pd=2.16u as=0.1406p ps=1.12u w=0.74u l=0.13u
N261 VSS VDD VSS VSS sg13g2_lv_nmos ad=79.8f pd=0.8u as=0 ps=0 w=0.42u l=1u
N262 VSS VDD VSS VSS sg13g2_lv_nmos ad=79.8f pd=0.8u as=0 ps=0 w=0.42u l=1u
N263 VDD VSS VDD VDD sg13g2_lv_pmos ad=0.19p pd=1.38u as=0 ps=0 w=1u l=1u
N264 VSS VDD VSS VSS sg13g2_lv_nmos ad=0.1428p pd=1.52u as=0 ps=0 w=0.42u l=1u
N265 VDD VSS VDD VDD sg13g2_lv_pmos ad=0.34p pd=2.68u as=0 ps=0 w=1u l=1u
N266 a_13936_14726# a_13679_14845# a_14098_14922# VSS sg13g2_lv_nmos ad=0.1428p pd=1.52u as=37.8f ps=0.6u w=0.42u l=0.13u
N267 VSS VDD VSS VSS sg13g2_lv_nmos ad=79.8f pd=0.8u as=0 ps=0 w=0.42u l=1u
N268 a_14188_17061# a_14128_16966# a_14073_17061# VDD sg13g2_lv_pmos ad=0.204p pd=1.835u as=93.45f ps=0.865u w=0.42u l=0.13u
N269 VSS VDD VSS VSS sg13g2_lv_nmos ad=0.1428p pd=1.52u as=0 ps=0 w=0.42u l=1u
N270 VDD VSS VDD VDD sg13g2_lv_pmos ad=0.19p pd=1.38u as=0 ps=0 w=1u l=1u
N271 VSS VDD VSS VSS sg13g2_lv_nmos ad=0.1428p pd=1.52u as=0 ps=0 w=0.42u l=1u
N272 VDD VSS VDD VDD sg13g2_lv_pmos ad=0.19p pd=1.38u as=0 ps=0 w=1u l=1u
N273 VSS VDD VSS VSS sg13g2_lv_nmos ad=79.8f pd=0.8u as=0 ps=0 w=0.42u l=1u
N274 VDD VSS VDD VDD sg13g2_lv_pmos ad=0.34p pd=2.68u as=0 ps=0 w=1u l=1u
N275 VDD VSS VDD VDD sg13g2_lv_pmos ad=0.34p pd=2.68u as=0 ps=0 w=1u l=1u
N276 VSS VDD VSS VSS sg13g2_lv_nmos ad=79.8f pd=0.8u as=0 ps=0 w=0.42u l=1u
N277 VDD VSS VDD VDD sg13g2_lv_pmos ad=0.34p pd=2.68u as=0 ps=0 w=1u l=1u
N278 VSS VDD VSS VSS sg13g2_lv_nmos ad=0.1428p pd=1.52u as=0 ps=0 w=0.42u l=1u
N279 VDD VSS VDD VDD sg13g2_lv_pmos ad=0.19p pd=1.38u as=0 ps=0 w=1u l=1u
N280 VSS VDD VSS VSS sg13g2_lv_nmos ad=79.8f pd=0.8u as=0 ps=0 w=0.42u l=1u
N281 VDD VSS VDD VDD sg13g2_lv_pmos ad=0.19p pd=1.38u as=0 ps=0 w=1u l=1u
N282 VDD VSS VDD VDD sg13g2_lv_pmos ad=0.19p pd=1.38u as=0 ps=0 w=1u l=1u
N283 VDD VSS VDD VDD sg13g2_lv_pmos ad=0.19p pd=1.38u as=0 ps=0 w=1u l=1u
N284 VDD VSS VDD VDD sg13g2_lv_pmos ad=0.19p pd=1.38u as=0 ps=0 w=1u l=1u
N285 VSS VDD VSS VSS sg13g2_lv_nmos ad=79.8f pd=0.8u as=0 ps=0 w=0.42u l=1u
N286 VSS VDD VSS VSS sg13g2_lv_nmos ad=79.8f pd=0.8u as=0 ps=0 w=0.42u l=1u
N287 VDD VSS VDD VDD sg13g2_lv_pmos ad=0.19p pd=1.38u as=0 ps=0 w=1u l=1u
N288 VSS VDD VSS VSS sg13g2_lv_nmos ad=79.8f pd=0.8u as=0 ps=0 w=0.42u l=1u
N289 VSS VDD VSS VSS sg13g2_lv_nmos ad=0.1428p pd=1.52u as=0 ps=0 w=0.42u l=1u
N290 VDD VSS VDD VDD sg13g2_lv_pmos ad=0.34p pd=2.68u as=0 ps=0 w=1u l=1u
N291 a_14628_16421# a_14340_16000# a_14566_16421# VSS sg13g2_lv_nmos ad=0.1428p pd=1.52u as=37.8f ps=0.6u w=0.42u l=0.13u
N292 VSS VDD VSS VSS sg13g2_lv_nmos ad=0.1428p pd=1.52u as=0 ps=0 w=0.42u l=1u
N293 VSS VDD VSS VSS sg13g2_lv_nmos ad=79.8f pd=0.8u as=0 ps=0 w=0.42u l=1u
N294 VDD VSS VDD VDD sg13g2_lv_pmos ad=0.19p pd=1.38u as=0 ps=0 w=1u l=1u
N295 VSS VDD VSS VSS sg13g2_lv_nmos ad=0.1428p pd=1.52u as=0 ps=0 w=0.42u l=1u
N296 VSS VDD VSS VSS sg13g2_lv_nmos ad=0.1428p pd=1.52u as=0 ps=0 w=0.42u l=1u
N297 VSS VDD VSS VSS sg13g2_lv_nmos ad=0.1428p pd=1.52u as=0 ps=0 w=0.42u l=1u
N298 VDD VSS VDD VDD sg13g2_lv_pmos ad=0.19p pd=1.38u as=0 ps=0 w=1u l=1u
N299 VDD VSS VDD VDD sg13g2_lv_pmos ad=0.34p pd=2.68u as=0 ps=0 w=1u l=1u
N300 VDD VSS VDD VDD sg13g2_lv_pmos ad=0.34p pd=2.68u as=0 ps=0 w=1u l=1u
N301 VDD VSS VDD VDD sg13g2_lv_pmos ad=0.19p pd=1.38u as=0 ps=0 w=1u l=1u
N302 VSS VDD VSS VSS sg13g2_lv_nmos ad=0.1428p pd=1.52u as=0 ps=0 w=0.42u l=1u
N303 VDD VSS VDD VDD sg13g2_lv_pmos ad=0.34p pd=2.68u as=0 ps=0 w=1u l=1u
N304 VDD VSS VDD VDD sg13g2_lv_pmos ad=0.34p pd=2.68u as=0 ps=0 w=1u l=1u
N305 VDD VSS VDD VDD sg13g2_lv_pmos ad=0.19p pd=1.38u as=0 ps=0 w=1u l=1u
N306 VSS VDD VSS VSS sg13g2_lv_nmos ad=79.8f pd=0.8u as=0 ps=0 w=0.42u l=1u
N307 adc_start a_17128_13760# VDD VDD sg13g2_lv_pmos ad=0.42p pd=2.99u as=0.2114p ps=1.54u w=1.12u l=0.13u
N308 VDD VSS VDD VDD sg13g2_lv_pmos ad=0.34p pd=2.68u as=0 ps=0 w=1u l=1u
N309 VDD VSS VDD VDD sg13g2_lv_pmos ad=0.34p pd=2.68u as=0 ps=0 w=1u l=1u
N310 VSS VDD VSS VSS sg13g2_lv_nmos ad=79.8f pd=0.8u as=0 ps=0 w=0.42u l=1u
N311 VDD VSS VDD VDD sg13g2_lv_pmos ad=0.19p pd=1.38u as=0 ps=0 w=1u l=1u
N312 VSS VDD VSS VSS sg13g2_lv_nmos ad=0.1428p pd=1.52u as=0 ps=0 w=0.42u l=1u
N313 VSS VDD VSS VSS sg13g2_lv_nmos ad=0.1428p pd=1.52u as=0 ps=0 w=0.42u l=1u
N314 VDD VSS VDD VDD sg13g2_lv_pmos ad=0.34p pd=2.68u as=0 ps=0 w=1u l=1u
N315 VSS VDD VSS VSS sg13g2_lv_nmos ad=79.8f pd=0.8u as=0 ps=0 w=0.42u l=1u
N316 VDD VSS VDD VDD sg13g2_lv_pmos ad=0.19p pd=1.38u as=0 ps=0 w=1u l=1u
N317 VSS VDD VSS VSS sg13g2_lv_nmos ad=0.1428p pd=1.52u as=0 ps=0 w=0.42u l=1u
N318 VDD VSS VDD VDD sg13g2_lv_pmos ad=0.34p pd=2.68u as=0 ps=0 w=1u l=1u
N319 VSS VDD VSS VSS sg13g2_lv_nmos ad=79.8f pd=0.8u as=0 ps=0 w=0.42u l=1u
N320 VDD VSS VDD VDD sg13g2_lv_pmos ad=0.34p pd=2.68u as=0 ps=0 w=1u l=1u
N321 VDD VSS VDD VDD sg13g2_lv_pmos ad=0.19p pd=1.38u as=0 ps=0 w=1u l=1u
N322 VSS VDD VSS VSS sg13g2_lv_nmos ad=79.8f pd=0.8u as=0 ps=0 w=0.42u l=1u
N323 VDD VSS VDD VDD sg13g2_lv_pmos ad=0.19p pd=1.38u as=0 ps=0 w=1u l=1u
N324 VSS VDD VSS VSS sg13g2_lv_nmos ad=79.8f pd=0.8u as=0 ps=0 w=0.42u l=1u
N325 VDD VSS VDD VDD sg13g2_lv_pmos ad=0.34p pd=2.68u as=0 ps=0 w=1u l=1u
N326 VSS VDD VSS VSS sg13g2_lv_nmos ad=79.8f pd=0.8u as=0 ps=0 w=0.42u l=1u
N327 VDD VSS VDD VDD sg13g2_lv_pmos ad=0.34p pd=2.68u as=0 ps=0 w=1u l=1u
N328 VSS VDD VSS VSS sg13g2_lv_nmos ad=79.8f pd=0.8u as=0 ps=0 w=0.42u l=1u
N329 VDD VSS VDD VDD sg13g2_lv_pmos ad=0.34p pd=2.68u as=0 ps=0 w=1u l=1u
N330 VDD VSS VDD VDD sg13g2_lv_pmos ad=0.19p pd=1.38u as=0 ps=0 w=1u l=1u
N331 VSS VDD VSS VSS sg13g2_lv_nmos ad=0.1428p pd=1.52u as=0 ps=0 w=0.42u l=1u
N332 VSS VDD VSS VSS sg13g2_lv_nmos ad=0.1428p pd=1.52u as=0 ps=0 w=0.42u l=1u
N333 VDD VSS VDD VDD sg13g2_lv_pmos ad=0.19p pd=1.38u as=0 ps=0 w=1u l=1u
N334 VSS VDD VSS VSS sg13g2_lv_nmos ad=79.8f pd=0.8u as=0 ps=0 w=0.42u l=1u
N335 VDD VSS VDD VDD sg13g2_lv_pmos ad=0.34p pd=2.68u as=0 ps=0 w=1u l=1u
N336 VSS VDD VSS VSS sg13g2_lv_nmos ad=0.1428p pd=1.52u as=0 ps=0 w=0.42u l=1u
N337 VDD VSS VDD VDD sg13g2_lv_pmos ad=0.19p pd=1.38u as=0 ps=0 w=1u l=1u
N338 VDD VSS VDD VDD sg13g2_lv_pmos ad=0.19p pd=1.38u as=0 ps=0 w=1u l=1u
N339 VDD VSS VDD VDD sg13g2_lv_pmos ad=0.19p pd=1.38u as=0 ps=0 w=1u l=1u
N340 VSS VDD VSS VSS sg13g2_lv_nmos ad=0.1428p pd=1.52u as=0 ps=0 w=0.42u l=1u
N341 a_11748_13722# sg13g2_a21o_1_0.X a_11654_13722# VSS sg13g2_lv_nmos ad=60.89999f pd=0.71u as=0.1428p ps=1.52u w=0.42u l=0.13u
N342 VSS VDD VSS VSS sg13g2_lv_nmos ad=79.8f pd=0.8u as=0 ps=0 w=0.42u l=1u
N343 VDD VSS VDD VDD sg13g2_lv_pmos ad=0.19p pd=1.38u as=0 ps=0 w=1u l=1u
N344 VDD VSS VDD VDD sg13g2_lv_pmos ad=0.19p pd=1.38u as=0 ps=0 w=1u l=1u
N345 VSS VDD VSS VSS sg13g2_lv_nmos ad=0.1428p pd=1.52u as=0 ps=0 w=0.42u l=1u
N346 a_12612_17064# a_12586_16969# VDD VDD sg13g2_lv_pmos ad=0.34p pd=2.68u as=0.36237p ps=2.605u w=1u l=0.13u
N347 VSS VDD VSS VSS sg13g2_lv_nmos ad=79.8f pd=0.8u as=0 ps=0 w=0.42u l=1u
N348 VDD VSS VDD VDD sg13g2_lv_pmos ad=0.19p pd=1.38u as=0 ps=0 w=1u l=1u
N349 VDD VSS VDD VDD sg13g2_lv_pmos ad=0.19p pd=1.38u as=0 ps=0 w=1u l=1u
N350 VDD VSS VDD VDD sg13g2_lv_pmos ad=0.34p pd=2.68u as=0 ps=0 w=1u l=1u
N351 VDD VSS VDD VDD sg13g2_lv_pmos ad=0.19p pd=1.38u as=0 ps=0 w=1u l=1u
N352 VDD VSS VDD VDD sg13g2_lv_pmos ad=0.19p pd=1.38u as=0 ps=0 w=1u l=1u
N353 VDD VSS VDD VDD sg13g2_lv_pmos ad=0.19p pd=1.38u as=0 ps=0 w=1u l=1u
N354 VSS VDD VSS VSS sg13g2_lv_nmos ad=79.8f pd=0.8u as=0 ps=0 w=0.42u l=1u
N355 VSS VDD VSS VSS sg13g2_lv_nmos ad=79.8f pd=0.8u as=0 ps=0 w=0.42u l=1u
N356 VSS VDD VSS VSS sg13g2_lv_nmos ad=0.1428p pd=1.52u as=0 ps=0 w=0.42u l=1u
N357 a_12646_14909# sg13g2_inv_1_0.Y VSS VSS sg13g2_lv_nmos ad=37.8f pd=0.6u as=0.1701p ps=1.65u w=0.42u l=0.13u
N358 VSS VDD VSS VSS sg13g2_lv_nmos ad=79.8f pd=0.8u as=0 ps=0 w=0.42u l=1u
N359 VDD VSS VDD VDD sg13g2_lv_pmos ad=0.19p pd=1.38u as=0 ps=0 w=1u l=1u
N360 VDD VSS VDD VDD sg13g2_lv_pmos ad=0.19p pd=1.38u as=0 ps=0 w=1u l=1u
N361 VSS VDD VSS VSS sg13g2_lv_nmos ad=0.1428p pd=1.52u as=0 ps=0 w=0.42u l=1u
N362 a_12297_14113# a_11940_14040# VDD VDD sg13g2_lv_pmos ad=63f pd=0.72u as=0.1563p ps=1.22u w=0.42u l=0.13u
N363 VDD VSS VDD VDD sg13g2_lv_pmos ad=0.34p pd=2.68u as=0 ps=0 w=1u l=1u
N364 VDD VSS VDD VDD sg13g2_lv_pmos ad=0.34p pd=2.68u as=0 ps=0 w=1u l=1u
N365 a_13702_12532# sg13g2_buf_1_0.A a_13459_12404# VDD sg13g2_lv_pmos ad=0.2125p pd=1.425u as=0.35p ps=2.7u w=1u l=0.13u
N366 VDD VSS VDD VDD sg13g2_lv_pmos ad=0.19p pd=1.38u as=0 ps=0 w=1u l=1u
N367 VSS VDD VSS VSS sg13g2_lv_nmos ad=0.1428p pd=1.52u as=0 ps=0 w=0.42u l=1u
N368 VSS VDD VSS VSS sg13g2_lv_nmos ad=0.1428p pd=1.52u as=0 ps=0 w=0.42u l=1u
N369 VDD VSS VDD VDD sg13g2_lv_pmos ad=0.34p pd=2.68u as=0 ps=0 w=1u l=1u
N370 VDD VSS VDD VDD sg13g2_lv_pmos ad=0.19p pd=1.38u as=0 ps=0 w=1u l=1u
N371 VSS VDD VSS VSS sg13g2_lv_nmos ad=79.8f pd=0.8u as=0 ps=0 w=0.42u l=1u
N372 VDD VSS VDD VDD sg13g2_lv_pmos ad=0.34p pd=2.68u as=0 ps=0 w=1u l=1u
N373 VDD VSS VDD VDD sg13g2_lv_pmos ad=0.34p pd=2.68u as=0 ps=0 w=1u l=1u
N374 VDD VSS VDD VDD sg13g2_lv_pmos ad=0.34p pd=2.68u as=0 ps=0 w=1u l=1u
N375 VSS VDD VSS VSS sg13g2_lv_nmos ad=0.1428p pd=1.52u as=0 ps=0 w=0.42u l=1u