* NGSPICE file created from fsm_flat.ext - technology: ihp-sg13

.subckt fsm_flat Timer_en adc_en clk_gating_en power_on sc_en timer_done tx_start
+ uart_busy uart_done uart_en adc_done adc_start clk reset wake_up_sg VDD VSS
X0 VSS VDD VSS VSS sg13_lv_nmos ad=0.1428p pd=1.52u as=2.28077n ps=0.01084 w=0.42u l=1u
x1 VDD VSS VDD VDD sg13_lv_pmos ad=0.34p pd=2.68u as=3.17827n ps=0.01242 w=1u l=1u
x2 VDD VSS VDD VDD sg13_lv_pmos ad=0.19p pd=1.38u as=0 ps=0 w=1u l=1u
x3 VDD VSS VDD VDD sg13_lv_pmos ad=0.19p pd=1.38u as=0 ps=0 w=1u l=1u
x4 VDD VSS VDD VDD sg13_lv_pmos ad=0.19p pd=1.38u as=0 ps=0 w=1u l=1u
x5 VSS VDD VSS VSS sg13_lv_nmos ad=0.1428p pd=1.52u as=0 ps=0 w=0.42u l=1u
x6 VSS a_16048_15454# a_15697_15311# VSS sg13_lv_nmos ad=79.8f pd=0.8u as=0.1428p ps=1.52u w=0.42u l=0.13u
x7 VDD VSS VDD VDD sg13_lv_pmos ad=0.34p pd=2.68u as=0 ps=0 w=1u l=1u
x8 VSS VDD VSS VSS sg13_lv_nmos ad=0.1428p pd=1.52u as=0 ps=0 w=0.42u l=1u
x9 VDD VSS VDD VDD sg13_lv_pmos ad=0.19p pd=1.38u as=0 ps=0 w=1u l=1u
x10 VDD VSS VDD VDD sg13_lv_pmos ad=0.19p pd=1.38u as=0 ps=0 w=1 u l=1u
x11 VSS VDD VSS VSS sg13_lv_nmos ad=0.1428p pd=1.52u as=0 ps=0 w=0.42u l=1u
x12 VDD VSS VDD VDD sg13_lv_pmos ad=0.19p pd=1.38u as=0 ps=0 w=1u l=1u
x13 VDD VSS VDD VDD sg13_lv_pmos ad=0.19p pd=1.38u as=0 ps=0 w=1u l=1u
x14 VSS VDD VSS VSS sg13_lv_nmos ad=79.8f pd=0.8u as=0 ps=0 w=0.42u l=1u
x15 VDD VSS VDD VDD sg13_lv_pmos ad=0.34p pd=2.68u as=0 ps=0 w=1u l=1u
x16 VSS VDD VSS VSS sg13_lv_nmos ad=79.8f pd=0.8u as=0 ps=0 w=0.42u l=1u
x17 a_14697_16043# a_14340_16000# VDD VDD sg13_lv_pmos ad=63f pd=0.72u as=0.1563p ps=1.22u w=0.42u l=0.13u
x18 VDD VSS VDD VDD sg13_lv_pmos ad=0.34p pd=2.68u as=0 ps=0 w=1u l=1u
x19 VSS VDD VSS VSS sg13_lv_nmos ad=0.1428p pd=1.52u as=0 ps=0 w=0.42u l=1u
x20 VSS VDD VSS VSS sg13_lv_nmos ad=79.8f pd=0.8u as=0 ps=0 w=0.42u l=1u
x21 VSS VDD VSS VSS sg13_lv_nmos ad=79.8f pd=0.8u as=0 ps=0 w=0.42u l=1u
x22 a_14054_16434# sg13_inv_1_1.Y VDD VDD sg13_lv_pmos ad=79.8f pd=0.8u as=0.1428p ps=1.52u w=0.42u l=0.13u
x23 VDD VSS VDD VDD sg13_lv_pmos ad=0.19p pd=1.38u as=0 ps=0 w=1u l=1u
x24 VDD VSS VDD VDD sg13_lv_pmos ad=0.34p pd=2.68u as=0 ps=0 w=1u l=1u
x25 a_11654_13722# a_12459_13844# a_11914_13945# VDD sg13_lv_pmos ad=0.1428p pd=1.52u as=79.8f ps=0.8u w=0.42u l=0.13u
x26 VSS sg13_a21oi_1_0.A1 a_14248_23556# VSS sg13_lv_nmos ad=0.14875p pd=1.16u as=0.187p ps=1.78u w=0.55u l=0.13u
x27 VDD VSS VDD VDD sg13_lv_pmos ad=0.19p pd=1.38u as=0 ps=0 w=1u l=1u
x28 VSS VDD VSS VSS sg13_lv_nmos ad=79.8f pd=0.8u as=0 ps=0 w=0.42u l=1u
x29 VDD sg13_inv_1_0.Y a_12394_14452# VDD sg13_lv_pmos ad=0.1563p pd=1.22u as=0.147p ps=1.54u w=0.42u l=0.13u
x30 VSS VDD VSS VSS sg13_lv_nmos ad=0.1428p pd=1.52u as=0 ps=0 w=0.42u l=1u
x31 VDD VSS VDD VDD sg13_lv_pmos ad=0.34p pd=2.68u as=0 ps=0 w=1u l=1u
x32 VSS VDD VSS VSS sg13_lv_nmos ad=79.8f pd=0.8u as=0 ps=0 w=0.42u l=1u
x33 VSS VDD VSS VSS sg13_lv_nmos ad=79.8f pd=0.8u as=0 ps=0 w=0.42u l=1u
x34 a_16048_13942# sg13_inv_1_0.Y a_16108_14037# VDD sg13_lv_pmos ad=79.8f pd=0.8u as=0.204p ps=1.835u w=0.42u l=0.13u
x35 VDD VSS VDD VDD sg13_lv_pmos ad=0.34p pd=2.68u as=0 ps=0 w=1u l=1u
x36 VSS VDD VSS VSS sg13_lv_nmos ad=79.8f pd=0.8u as=0 ps=0 w=0.42u l=1u
x37 VSS VDD VSS VSS sg13_lv_nmos ad=79.8f pd=0.8u as=0 ps=0 w=0.42u l=1u
x38 VSS VDD VSS VSS sg13_lv_nmos ad=0.1428p pd=1.52u as=0 ps=0 w=0.42u l=1u
x39 VSS VDD VSS VSS sg13_lv_nmos ad=79.8f pd=0.8u as=0 ps=0 w=0.42u l=1u
x40 VDD VSS VDD VDD sg13_lv_pmos ad=0.34p pd=2.68u as=0 ps=0 w=1u l=1u
x41 VDD VSS VDD VDD sg13_lv_pmos ad=0.19p pd=1.38u as=0 ps=0 w=1u l=1u
x42 VSS VDD VSS VSS sg13_lv_nmos ad=0.1428p pd=1.52u as=0 ps=0 w=0.42u l=1u
x43 VSS VDD VSS VSS sg13_lv_nmos ad=79.8f pd=0.8u as=0 ps=0 w=0.42u l=1u
x44 VSS VDD VSS VSS sg13_lv_nmos ad=79.8f pd=0.8u as=0 ps=0 w=0.42u l=1u
x45 VDD VSS VDD VDD sg13_lv_pmos ad=0.19p pd=1.38u as=0 ps=0 w=1u l=1u
x46 VDD VSS VDD VDD sg13_lv_pmos ad=0.19p pd=1.38u as=0 ps=0 w=1u l=1u
x47 VSS VDD VSS VSS sg13_lv_nmos ad=79.8f pd=0.8u as=0 ps=0 w=0.42u l=1u
x48 VSS VDD VSS VSS sg13_lv_nmos ad=79.8f pd=0.8u as=0 ps=0 w=0.42u l=1u
x49 VSS VDD VSS VSS sg13_lv_nmos ad=79.8f pd=0.8u as=0 ps=0 w=0.42u l=1u
x50 VDD VSS VDD VDD sg13_lv_pmos ad=0.19p pd=1.38u as=0 ps=0 w=1u l=1u
x51 VDD VSS VDD VDD sg13_lv_pmos ad=0.19p pd=1.38u as=0 ps=0 w=1u l=1u
x52 VSS VDD VSS VSS sg13_lv_nmos ad=0.1428p pd=1.52u as=0 ps=0 w=0.42u l=1u
x53 VSS VDD VSS VSS sg13_lv_nmos ad=0.1428p pd=1.52u as=0 ps=0 w=0.42u l=1u
x54 VDD VSS VDD VDD sg13_lv_pmos ad=0.34p pd=2.68u as=0 ps=0 w=1u l=1u
x55 VSS VDD VSS VSS sg13_lv_nmos ad=79.8f pd=0.8u as=0 ps=0 w=0.42u l=1u
x56 VDD VSS VDD VDD sg13_lv_pmos ad=0.34p pd=2.68u as=0 ps=0 w=1u l=1u
x57 VDD VSS VDD VDD sg13_lv_pmos ad=0.19p pd=1.38u as=0 ps=0 w=1u l=1u
x58 VDD VSS VDD VDD sg13_lv_pmos ad=0.34p pd=2.68u as=0 ps=0 w=1u l=1u
x59 VSS VDD VSS VSS sg13_lv_nmos ad=0.1428p pd=1.52u as=0 ps=0 w=0.42u l=1u
x60 VDD VSS VDD VDD sg13_lv_pmos ad=0.19p pd=1.38u as=0 ps=0 w=1u l=1u
x61 VSS VDD VSS VSS sg13_lv_nmos ad=0.1428p pd=1.52u as=0 ps=0 w=0.42u l=1u
x62 VSS VDD VSS VSS sg13_lv_nmos ad=0.1428p pd=1.52u as=0 ps=0 w=0.42u l=1u
x63 VDD VSS VDD VDD sg13_lv_pmos ad=0.34p pd=2.68u as=0 ps=0 w=1u l=1u
x64 VDD VSS VDD VDD sg13_lv_pmos ad=0.34p pd=2.68u as=0 ps=0 w=1u l=1u
x65 VDD VSS VDD VDD sg13_lv_pmos ad=0.34p pd=2.68u as=0 ps=0 w=1u l=1u
x66 VSS VDD VSS VSS sg13_lv_nmos ad=0.1428p pd=1.52u as=0 ps=0 w=0.42u l=1u
x67 a_13297_14486# a_12837_14495# a_12939_14495# VDD sg13_lv_pmos ad=0.41165p pd=2.12u as=0.3864p ps=2.93u w=1.12u l=0.13u
x68 VSS VDD VSS VSS sg13_lv_nmos ad=79.8f pd=0.8u as=0 ps=0 w=0.42u l=1u
x69 VDD VSS VDD VDD sg13_lv_pmos ad=0.19p pd=1.38u as=0 ps=0 w=1u l=1u
x70 VSS VDD VSS VSS sg13_lv_nmos ad=79.8f pd=0.8u as=0 ps=0 w=0.42u l=1u
x71 VDD VSS VDD VDD sg13_lv_pmos ad=0.34p pd=2.68u as=0 ps=0 w=1u l=1u
x72 VSS VDD VSS VSS sg13_lv_nmos ad=0.1428p pd=1.52u as=0 ps=0 w=0.42u l=1u
x73 VSS VDD VSS VSS sg13_lv_nmos ad=79.8f pd=0.8u as=0 ps=0 w=0.42u l=1u
x74 VDD VSS VDD VDD sg13_lv_pmos ad=0.19p pd=1.38u as=0 ps=0 w=1u l=1u
x75 VDD VSS VDD VDD sg13_lv_pmos ad=0.19p pd=1.38u as=0 ps=0 w=1u l=1u
x76 VSS VDD VSS VSS sg13_lv_nmos ad=0.1428p pd=1.52u as=0 ps=0 w=0.42u l=1u
x77 VDD VSS VDD VDD sg13_lv_pmos ad=0.19p pd=1.38u as=0 ps=0 w=1u l=1u
x78 VSS VDD VSS VSS sg13_lv_nmos ad=79.8f pd=0.8u as=0 ps=0 w=0.42u l=1u
x79 VDD VSS VDD VDD sg13_lv_pmos ad=0.19p pd=1.38u as=0 ps=0 w=1u l=1u
x80 VDD VSS VDD VDD sg13_lv_pmos ad=0.19p pd=1.38u as=0 ps=0 w=1u l=1u
x81 VDD VSS VDD VDD sg13_lv_pmos ad=0.34p pd=2.68u as=0 ps=0 w=1u l=1u
x82 VSS VDD VSS VSS sg13_lv_nmos ad=79.8f pd=0.8u as=0 ps=0 w=0.42u l=1u
x83 VDD VSS VDD VDD sg13_lv_pmos ad=0.19p pd=1.38u as=0 ps=0 w=1u l=1u
x84 VDD VSS VDD VDD sg13_lv_pmos ad=0.19p pd=1.38u as=0 ps=0 w=1u l=1u
x85 VSS VDD VSS VSS sg13_lv_nmos ad=79.8f pd=0.8u as=0 ps=0 w=0.42u l=1u
x86 VSS VDD VSS VSS sg13_lv_nmos ad=79.8f pd=0.8u as=0 ps=0 w=0.42u l=1u
x87 VSS VDD VSS VSS sg13_lv_nmos ad=79.8f pd=0.8u as=0 ps=0 w=0.42u l=1u
x88 VSS VDD VSS VSS sg13_lv_nmos ad=79.8f pd=0.8u as=0 ps=0 w=0.42u l=1u
x89 VSS VDD VSS VSS sg13_lv_nmos ad=79.8f pd=0.8u as=0 ps=0 w=0.42u l=1u
x90 VDD VSS VDD VDD sg13_lv_pmos ad=0.19p pd=1.38u as=0 ps=0 w=1u l=1u
x91 VSS VDD VSS VSS sg13_lv_nmos ad=79.8f pd=0.8u as=0 ps=0 w=0.42u l=1u
x92 VDD VSS VDD VDD sg13_lv_pmos ad=0.19p pd=1.38u as=0 ps=0 w=1u l=1u
x93 VDD VSS VDD VDD sg13_lv_pmos ad=0.19p pd=1.38u as=0 ps=0 w=1u l=1u
x94 VSS VDD VSS VSS sg13_lv_nmos ad=79.8f pd=0.8u as=0 ps=0 w=0.42u l=1u
x95 VDD VSS VDD VDD sg13_lv_pmos ad=0.34p pd=2.68u as=0 ps=0 w=1u l=1u
x96 VDD VSS VDD VDD sg13_lv_pmos ad=0.19p pd=1.38u as=0 ps=0 w=1u l=1u
x97 VSS VDD VSS VSS sg13_lv_nmos ad=79.8f pd=0.8u as=0 ps=0 w=0.42u l=1u
x98 VDD VSS VDD VDD sg13_lv_pmos ad=0.19p pd=1.38u as=0 ps=0 w=1u l=1u
x99 VSS VDD VSS VSS sg13_lv_nmos ad=79.8f pd=0.8u as=0 ps=0 w=0.42u l=1u
x100 VSS VDD VSS VSS sg13_lv_nmos ad=79.8f pd=0.8u as=0 ps=0 w=0.42u l=1u
x101 VSS VDD VSS VSS sg13_lv_nmos ad=0.1428p pd=1.52u as=0 ps=0 w=0.42u l=1u
x102 VDD VSS VDD VDD sg13_lv_pmos ad=0.19p pd=1.38u as=0 ps=0 w=1u l=1u
x103 VDD VSS VDD VDD sg13_lv_pmos ad=0.34p pd=2.68u as=0 ps=0 w=1u l=1u
x104 VSS VDD VSS VSS sg13_lv_nmos ad=0.1428p pd=1.52u as=0 ps=0 w=0.42u l=1u
x105 sg13_inv_2_1.A a_17800_15272# VDD VDD sg13_lv_pmos ad=0.42p pd=2.99u as=0.2114p ps=1.54u w=1.12u l=0.13u
x106 VDD VSS VDD VDD sg13_lv_pmos ad=0.19p pd=1.38u as=0 ps=0 w=1u l=1u
x107 VDD VSS VDD VDD sg13_lv_pmos ad=0.34p pd=2.68u as=0 ps=0 w=1u l=1u
x108 VSS VDD VSS VSS sg13_lv_nmos ad=0.1428p pd=1.52u as=0 ps=0 w=0.42u l=1u
x109 VDD VSS VDD VDD sg13_lv_pmos ad=0.34p pd=2.68u as=0 ps=0 w=1u l=1u
x110 VSS VDD VSS VSS sg13_lv_nmos ad=79.8f pd=0.8u as=0 ps=0 w=0.42u l=1u
x111 a_14340_13722# sg13_and2_1_0.X a_14246_13722# VSS sg13_lv_nmos ad=60.89999f pd=0.71u as=0.1428p ps=1.52u w=0.42u l=0.13u
x112 VDD VSS VDD VDD sg13_lv_pmos ad=0.34p pd=2.68u as=0 ps=0 w=1u l=1u
x113 VDD VSS VDD VDD sg13_lv_pmos ad=0.19p pd=1.38u as=0 ps=0 w=1u l=1u
x114 VDD VSS VDD VDD sg13_lv_pmos ad=0.19p pd=1.38u as=0 ps=0 w=1u l=1u
x115 VDD VSS VDD VDD sg13_lv_pmos ad=0.34p pd=2.68u as=0 ps=0 w=1u l=1u
x116 VSS VDD VSS VSS sg13_lv_nmos ad=0.1428p pd=1.52u as=0 ps=0 w=0.42u l=1u
x117 VDD VSS VDD VDD sg13_lv_pmos ad=0.34p pd=2.68u as=0 ps=0 w=1u l=1u
x118 VSS VDD VSS VSS sg13_lv_nmos ad=0.1428p pd=1.52u as=0 ps=0 w=0.42u l=1u
x119 VSS VDD VSS VSS sg13_lv_nmos ad=0.1428p pd=1.52u as=0 ps=0 w=0.42u l=1u
x120 VDD VSS VDD VDD sg13_lv_pmos ad=0.19p pd=1.38u as=0 ps=0 w=1u l=1u
x121 VDD VSS VDD VDD sg13_lv_pmos ad=0.34p pd=2.68u as=0 ps=0 w=1u l=1u
x122 VDD VSS VDD VDD sg13_lv_pmos ad=0.34p pd=2.68u as=0 ps=0 w=1u l=1u
x123 VDD VSS VDD VDD sg13_lv_pmos ad=0.34p pd=2.68u as=0 ps=0 w=1u l=1u
x124 VDD VSS VDD VDD sg13_lv_pmos ad=0.34p pd=2.68u as=0 ps=0 w=1u l=1u
x125 VDD VSS VDD VDD sg13_lv_pmos ad=0.34p pd=2.68u as=0 ps=0 w=1u l=1u
x126 VDD VSS VDD VDD sg13_lv_pmos ad=0.19p pd=1.38u as=0 ps=0 w=1u l=1u
x127 a_15217_16349# a_14757_16007# a_14859_16007# VSS sg13_lv_nmos ad=0.31732p pd=1.805u as=0.2516p ps=2.16u w=0.74u l=0.13u
x128 VSS VDD VSS VSS sg13_lv_nmos ad=79.8f pd=0.8u as=0 ps=0 w=0.42u l=1u
x129 VSS adc_done a_17800_15272# VSS sg13_lv_nmos ad=0.14875p pd=1.16u as=0.187p ps=1.78u w=0.55u l=0.13u
x130 VSS VDD VSS VSS sg13_lv_nmos ad=0.1428p pd=1.52u as=0 ps=0 w=0.42u l=1u
x131 VSS VDD VSS VSS sg13_lv_nmos ad=0.1428p pd=1.52u as=0 ps=0 w=0.42u l=1u
x132 VSS VDD VSS VSS sg13_lv_nmos ad=79.8f pd=0.8u as=0 ps=0 w=0.42u l=1u
x133 VSS VDD VSS VSS sg13_lv_nmos ad=0.1428p pd=1.52u as=0 ps=0 w=0.42u l=1u
x134 VSS VDD VSS VSS sg13_lv_nmos ad=0.1428p pd=1.52u as=0 ps=0 w=0.42u l=1u
x135 VDD VSS VDD VDD sg13_lv_pmos ad=0.34p pd=2.68u as=0 ps=0 w=1u l=1u
x136 VSS VDD VSS VSS sg13_lv_nmos ad=79.8f pd=0.8u as=0 ps=0 w=0.42u l=1u
x137 a_12708_14909# a_12420_14488# a_12646_14909# VSS sg13_lv_nmos ad=0.1428p pd=1.52u as=37.8f ps=0.6u w=0.42u l=0.13u
x138 VSS VDD VSS VSS sg13_lv_nmos ad=0.1428p pd=1.52u as=0 ps=0 w=0.42u l=1u
x139 VDD VSS VDD VDD sg13_lv_pmos ad=0.19p pd=1.38u as=0 ps=0 w=1u l=1u
x140 VDD VSS VDD VDD sg13_lv_pmos ad=0.34p pd=2.68u as=0 ps=0 w=1u l=1u
x141 VSS VDD VSS VSS sg13_lv_nmos ad=79.8f pd=0.8u as=0 ps=0 w=0.42u l=1u
x142 VSS VDD VSS VSS sg13_lv_nmos ad=79.8f pd=0.8u as=0 ps=0 w=0.42u l=1u
x143 VSS VDD VSS VSS sg13_lv_nmos ad=79.8f pd=0.8u as=0 ps=0 w=0.42u l=1u
x144 VDD VSS VDD VDD sg13_lv_pmos ad=0.19p pd=1.38u as=0 ps=0 w=1u l=1u
x145 VDD VSS VDD VDD sg13_lv_pmos ad=0.19p pd=1.38u as=0 ps=0 w=1u l=1u
x146 VSS VDD VSS VSS sg13_lv_nmos ad=79.8f pd=0.8u as=0 ps=0 w=0.42u l=1u
x147 VSS VDD VSS VSS sg13_lv_nmos ad=0.1428p pd=1.52u as=0 ps=0 w=0.42u l=1u
x148 VDD VSS VDD VDD sg13_lv_pmos ad=0.19p pd=1.38u as=0 ps=0 w=1u l=1u
x149 VSS VDD VSS VSS sg13_lv_nmos ad=79.8f pd=0.8u as=0 ps=0 w=0.42u l=1u
x150 VDD VSS VDD VDD sg13_lv_pmos ad=0.19p pd=1.38u as=0 ps=0 w=1u l=1u
x151 VSS VDD VSS VSS sg13_lv_nmos ad=0.1428p pd=1.52u as=0 ps=0 w=0.42u l=1u
x152 VSS VDD VSS VSS sg13_lv_nmos ad=79.8f pd=0.8u as=0 ps=0 w=0.42u l=1u
x153 VDD VSS VDD VDD sg13_lv_pmos ad=0.34p pd=2.68u as=0 ps=0 w=1u l=1u
x154 VDD VSS VDD VDD sg13_lv_pmos ad=0.19p pd=1.38u as=0 ps=0 w=1u l=1u
x155 VSS VDD VSS VSS sg13_lv_nmos ad=0.1428p pd=1.52u as=0 ps=0 w=0.42u l=1u
x156 VSS VDD VSS VSS sg13_lv_nmos ad=0.1428p pd=1.52u as=0 ps=0 w=0.42u l=1u
x157 VSS VDD VSS VSS sg13_lv_nmos ad=79.8f pd=0.8u as=0 ps=0 w=0.42u l=1u
x158 VDD VSS VDD VDD sg13_lv_pmos ad=0.19p pd=1.38u as=0 ps=0 w=1u l=1u
x159 VSS VDD VSS VSS sg13_lv_nmos ad=79.8f pd=0.8u as=0 ps=0 w=0.42u l=1u
x160 VSS VDD VSS VSS sg13_lv_nmos ad=79.8f pd=0.8u as=0 ps=0 w=0.42u l=1u
x161 VDD VSS VDD VDD sg13_lv_pmos ad=0.19p pd=1.38u as=0 ps=0 w=1u l=1u
x162 VDD VSS VDD VDD sg13_lv_pmos ad=0.19p pd=1.38u as=0 ps=0 w=1u l=1u
x163 VDD VSS VDD VDD sg13_lv_pmos ad=0.19p pd=1.38u as=0 ps=0 w=1u l=1u
x164 VSS VDD VSS VSS sg13_lv_nmos ad=0.1428p pd=1.52u as=0 ps=0 w=0.42u l=1u
x165 VDD VSS VDD VDD sg13_lv_pmos ad=0.19p pd=1.38u as=0 ps=0 w=1u l=1u
x166 VSS VDD VSS VSS sg13_lv_nmos ad=0.1428p pd=1.52u as=0 ps=0 w=0.42u l=1u
x167 VDD VSS VDD VDD sg13_lv_pmos ad=0.19p pd=1.38u as=0 ps=0 w=1u l=1u
x168 a_14340_16000# a_14314_15964# VDD VDD sg13_lv_pmos ad=0.34p pd=2.68u as=0.36237p ps=2.605u w=1u l=0.13u
x169 VDD VSS VDD VDD sg13_lv_pmos ad=0.34p pd=2.68u as=0 ps=0 w=1u l=1u
x170 VSS VDD VSS VSS sg13_lv_nmos ad=79.8f pd=0.8u as=0 ps=0 w=0.42u l=1u
x171 sg13_buf_1_5.X a_14152_10736# VSS VSS sg13_lv_nmos ad=0.2886p pd=2.26u as=0.14875p ps=1.16u w=0.74u l=0.13u
x172 VSS VDD VSS VSS sg13_lv_nmos ad=79.8f pd=0.8u as=0 ps=0 w=0.42u l=1u
x173 VSS VDD VSS VSS sg13_lv_nmos ad=0.1428p pd=1.52u as=0 ps=0 w=0.42u l=1u
x174 VDD VSS VDD VDD sg13_lv_pmos ad=0.19p pd=1.38u as=0 ps=0 w=1u l=1u
x175 VSS VDD VSS VSS sg13_lv_nmos ad=0.1428p pd=1.52u as=0 ps=0 w=0.42u l=1u
x176 VDD VSS VDD VDD sg13_lv_pmos ad=0.19p pd=1.38u as=0 ps=0 w=1u l=1u
x177 VSS VDD VSS VSS sg13_lv_nmos ad=0.1428p pd=1.52u as=0 ps=0 w=0.42u l=1u
x178 VSS VDD VSS VSS sg13_lv_nmos ad=79.8f pd=0.8u as=0 ps=0 w=0.42u l=1u
x179 VSS VDD VSS VSS sg13_lv_nmos ad=0.1428p pd=1.52u as=0 ps=0 w=0.42u l=1u
x180 VDD VSS VDD VDD sg13_lv_pmos ad=0.19p pd=1.38u as=0 ps=0 w=1u l=1u
x181 VSS VDD VSS VSS sg13_lv_nmos ad=0.1428p pd=1.52u as=0 ps=0 w=0.42u l=1u
x182 VDD VSS VDD VDD sg13_lv_pmos ad=0.34p pd=2.68u as=0 ps=0 w=1u l=1u
x183 VSS VDD VSS VSS sg13_lv_nmos ad=0.1428p pd=1.52u as=0 ps=0 w=0.42u l=1u
x184 VDD VSS VDD VDD sg13_lv_pmos ad=0.34p pd=2.68u as=0 ps=0 w=1u l=1u
x185 sg13_a21oi_1_0.A1 a_14538_17044# VSS VSS sg13_lv_nmos ad=0.2516p pd=2.16u as=0.1406p ps=1.12u w=0.74u l=0.13u
x186 sg13_inv_1_1.A sg13_a22oi_1_0.B2 a_16735_16388# VSS sg13_lv_nmos ad=0.2664p pd=1.46u as=0.13875p ps=1.115u w=0.74u l=0.13u
x187 VSS VDD VSS VSS sg13_lv_nmos ad=79.8f pd=0.8u as=0 ps=0 w=0.42u l=1u
x188 VDD VSS VDD VDD sg13_lv_pmos ad=0.19p pd=1.38u as=0 ps=0 w=1u l=1u
x189 sg13_dfrbpq_1_0.CLK a_7816_15996# VDD VDD sg13_lv_pmos ad=0.42p pd=2.99u as=0.2114p ps=1.54u w=1.12u l=0.13u
x190 VDD VSS VDD VDD sg13_lv_pmos ad=0.34p pd=2.68u as=0 ps=0 w=1u l=1u
x191 VSS VDD VSS VSS sg13_lv_nmos ad=79.8f pd=0.8u as=0 ps=0 w=0.42u l=1u
x192 VDD VSS VDD VDD sg13_lv_pmos ad=0.19p pd=1.38u as=0 ps=0 w=1u l=1u
x193 VDD VSS VDD VDD sg13_lv_pmos ad=0.19p pd=1.38u as=0 ps=0 w=1u l=1u
x194 VDD VSS VDD VDD sg13_lv_pmos ad=0.19p pd=1.38u as=0 ps=0 w=1u l=1u
x195 VSS VDD VSS VSS sg13_lv_nmos ad=79.8f pd=0.8u as=0 ps=0 w=0.42u l=1u
x196 VDD VSS VDD VDD sg13_lv_pmos ad=0.34p pd=2.68u as=0 ps=0 w=1u l=1u
x197 VSS VDD VSS VSS sg13_lv_nmos ad=79.8f pd=0.8u as=0 ps=0 w=0.42u l=1u
x198 VDD VSS VDD VDD sg13_lv_pmos ad=0.34p pd=2.68u as=0 ps=0 w=1u l=1u
x199 VDD VSS VDD VDD sg13_lv_pmos ad=0.34p pd=2.68u as=0 ps=0 w=1u l=1u
x200 VDD VSS VDD VDD sg13_lv_pmos ad=0.34p pd=2.68u as=0 ps=0 w=1u l=1u
x201 VDD VSS VDD VDD sg13_lv_pmos ad=0.19p pd=1.38u as=0 ps=0 w=1u l=1u
x202 VDD VSS VDD VDD sg13_lv_pmos ad=0.34p pd=2.68u as=0 ps=0 w=1u l=1u
x203 a_13936_14726# sg13_inv_1_0.Y a_13996_14607# VDD sg13_lv_pmos ad=79.8f pd=0.8u as=0.204p ps=1.835u w=0.42u l=0.13u
x204 VSS VDD VSS VSS sg13_lv_nmos ad=79.8f pd=0.8u as=0 ps=0 w=0.42u l=1u
x205 a_14314_15964# a_14757_16007# a_14054_16434# VSS sg13_lv_nmos ad=79.8f pd=0.8u as=0.1296p ps=1.52u w=0.42u l=0.13u
x206 VDD VSS VDD VDD sg13_lv_pmos ad=0.19p pd=1.38u as=0 ps=0 w=1u l=1u
x207 VSS VDD VSS VSS sg13_lv_nmos ad=79.8f pd=0.8u as=0 ps=0 w=0.42u l=1u
x208 VDD VSS VDD VDD sg13_lv_pmos ad=0.34p pd=2.68u as=0 ps=0 w=1u l=1u
x209 VSS VDD VSS VSS sg13_lv_nmos ad=79.8f pd=0.8u as=0 ps=0 w=0.42u l=1u
x210 VSS VDD VSS VSS sg13_lv_nmos ad=79.8f pd=0.8u as=0 ps=0 w=0.42u l=1u
x211 VDD VSS VDD VDD sg13_lv_pmos ad=0.34p pd=2.68u as=0 ps=0 w=1u l=1u
x212 VSS VDD VSS VSS sg13_lv_nmos ad=79.8f pd=0.8u as=0 ps=0 w=0.42u l=1u
x213 VSS VDD VSS VSS sg13_lv_nmos ad=79.8f pd=0.8u as=0 ps=0 w=0.42u l=1u
x214 VSS VDD VSS VSS sg13_lv_nmos ad=0.1428p pd=1.52u as=0 ps=0 w=0.42u l=1u
x215 VSS VDD VSS VSS sg13_lv_nmos ad=0.1428p pd=1.52u as=0 ps=0 w=0.42u l=1u
x216 VSS VDD VSS VSS sg13_lv_nmos ad=0.1428p pd=1.52u as=0 ps=0 w=0.42u l=1u
x217 VDD VSS VDD VDD sg13_lv_pmos ad=0.34p pd=2.68u as=0 ps=0 w=1u l=1u
x218 sg13_dfrbpq_1_5.Q a_16266_15996# VDD VDD sg13_lv_pmos ad=0.3808p pd=2.92u as=0.2128p ps=1.5u w=1.12u l=0.13u
x219 VSS VDD VSS VSS sg13_lv_nmos ad=79.8f pd=0.8u as=0 ps=0 w=0.42u l=1u
x220 VSS VDD VSS VSS sg13_lv_nmos ad=0.1428p pd=1.52u as=0 ps=0 w=0.42u l=1u
x221 VDD VSS VDD VDD sg13_lv_pmos ad=0.19p pd=1.38u as=0 ps=0 w=1u l=1u
x222 VDD VSS VDD VDD sg13_lv_pmos ad=0.19p pd=1.38u as=0 ps=0 w=1u l=1u
x223 VSS VDD VSS VSS sg13_lv_nmos ad=79.8f pd=0.8u as=0 ps=0 w=0.42u l=1u
x224 VDD VSS VDD VDD sg13_lv_pmos ad=0.34p pd=2.68u as=0 ps=0 w=1u l=1u
x225 VDD VSS VDD VDD sg13_lv_pmos ad=0.19p pd=1.38u as=0 ps=0 w=1u l=1u
x226 VDD VSS VDD VDD sg13_lv_pmos ad=0.19p pd=1.38u as=0 ps=0 w=1u l=1u
x227 VDD VSS VDD VDD sg13_lv_pmos ad=0.19p pd=1.38u as=0 ps=0 w=1u l=1u
x228 VSS VDD VSS VSS sg13_lv_nmos ad=79.8f pd=0.8u as=0 ps=0 w=0.42u l=1u
x229 VSS VDD VSS VSS sg13_lv_nmos ad=0.1428p pd=1.52u as=0 ps=0 w=0.42u l=1u
x230 VSS VDD VSS VSS sg13_lv_nmos ad=0.1428p pd=1.52u as=0 ps=0 w=0.42u l=1u
x231 VSS VDD VSS VSS sg13_lv_nmos ad=0.1428p pd=1.52u as=0 ps=0 w=0.42u l=1u
x232 VDD VSS VDD VDD sg13_lv_pmos ad=0.19p pd=1.38u as=0 ps=0 w=1u l=1u
x233 VSS VDD VSS VSS sg13_lv_nmos ad=79.8f pd=0.8u as=0 ps=0 w=0.42u l=1u
x234 VSS VDD VSS VSS sg13_lv_nmos ad=0.1428p pd=1.52u as=0 ps=0 w=0.42u l=1u
x235 VSS VDD VSS VSS sg13_lv_nmos ad=0.1428p pd=1.52u as=0 ps=0 w=0.42u l=1u
x236 VDD VSS VDD VDD sg13_lv_pmos ad=0.34p pd=2.68u as=0 ps=0 w=1u l=1u
x237 VDD VSS VDD VDD sg13_lv_pmos ad=0.34p pd=2.68u as=0 ps=0 w=1u l=1u
x238 VDD VSS VDD VDD sg13_lv_pmos ad=0.19p pd=1.38u as=0 ps=0 w=1u l=1u
x239 VDD VSS VDD VDD sg13_lv_pmos ad=0.19p pd=1.38u as=0 ps=0 w=1u l=1u
x240 VSS VDD VSS VSS sg13_lv_nmos ad=0.1428p pd=1.52u as=0 ps=0 w=0.42u l=1u
x241 VSS VDD VSS VSS sg13_lv_nmos ad=79.8f pd=0.8u as=0 ps=0 w=0.42u l=1u
x242 VDD VSS VDD VDD sg13_lv_pmos ad=0.19p pd=1.38u as=0 ps=0 w=1u l=1u
x243 VSS VDD VSS VSS sg13_lv_nmos ad=79.8f pd=0.8u as=0 ps=0 w=0.42u l=1u
x244 VSS VDD VSS VSS sg13_lv_nmos ad=79.8f pd=0.8u as=0 ps=0 w=0.42u l=1u
x245 VSS VDD VSS VSS sg13_lv_nmos ad=0.1428p pd=1.52u as=0 ps=0 w=0.42u l=1u
x246 VSS VDD VSS VSS sg13_lv_nmos ad=79.8f pd=0.8u as=0 ps=0 w=0.42u l=1u
x247 a_13456_13942# sg13_inv_1_0.Y a_13516_14037# VDD sg13_lv_pmos ad=79.8f pd=0.8u as=0.204p ps=1.835u w=0.42u l=0.13u
x248 VDD VSS VDD VDD sg13_lv_pmos ad=0.19p pd=1.38u as=0 ps=0 w=1u l=1u
x249 VDD VSS VDD VDD sg13_lv_pmos ad=0.34p pd=2.68u as=0 ps=0 w=1u l=1u
x250 VSS VDD VSS VSS sg13_lv_nmos ad=79.8f pd=0.8u as=0 ps=0 w=0.42u l=1u
x251 VDD VSS VDD VDD sg13_lv_pmos ad=0.19p pd=1.38u as=0 ps=0 w=1u l=1u
x252 VDD VSS VDD VDD sg13_lv_pmos ad=0.34p pd=2.68u as=0 ps=0 w=1u l=1u
x253 VDD VSS VDD VDD sg13_lv_pmos ad=0.34p pd=2.68u as=0 ps=0 w=1u l=1u
x254 VSS VDD VSS VSS sg13_lv_nmos ad=0.1428p pd=1.52u as=0 ps=0 w=0.42u l=1u
x255 VDD VSS VDD VDD sg13_lv_pmos ad=0.34p pd=2.68u as=0 ps=0 w=1u l=1u
x256 VDD VSS VDD VDD sg13_lv_pmos ad=0.19p pd=1.38u as=0 ps=0 w=1u l=1u
x257 VSS VDD VSS VSS sg13_lv_nmos ad=0.1428p pd=1.52u as=0 ps=0 w=0.42u l=1u
x258 VDD VSS VDD VDD sg13_lv_pmos ad=0.34p pd=2.68u as=0 ps=0 w=1u l=1u
x259 VSS VDD VSS VSS sg13_lv_nmos ad=79.8f pd=0.8u as=0 ps=0 w=0.42u l=1u
x260 VSS sg13_nor2_1_0.B sg13_nor2_1_0.Y VSS sg13_lv_nmos ad=0.2516p pd=2.16u as=0.1406p ps=1.12u w=0.74u l=0.13u
x261 VSS VDD VSS VSS sg13_lv_nmos ad=79.8f pd=0.8u as=0 ps=0 w=0.42u l=1u
x262 VSS VDD VSS VSS sg13_lv_nmos ad=79.8f pd=0.8u as=0 ps=0 w=0.42u l=1u
x263 VDD VSS VDD VDD sg13_lv_pmos ad=0.19p pd=1.38u as=0 ps=0 w=1u l=1u
x264 VSS VDD VSS VSS sg13_lv_nmos ad=0.1428p pd=1.52u as=0 ps=0 w=0.42u l=1u
x265 VDD VSS VDD VDD sg13_lv_pmos ad=0.34p pd=2.68u as=0 ps=0 w=1u l=1u
x266 a_13936_14726# a_13679_14845# a_14098_14922# VSS sg13_lv_nmos ad=0.1428p pd=1.52u as=37.8f ps=0.6u w=0.42u l=0.13u
x267 VSS VDD VSS VSS sg13_lv_nmos ad=79.8f pd=0.8u as=0 ps=0 w=0.42u l=1u
x268 a_14188_17061# a_14128_16966# a_14073_17061# VDD sg13_lv_pmos ad=0.204p pd=1.835u as=93.45f ps=0.865u w=0.42u l=0.13u
x269 VSS VDD VSS VSS sg13_lv_nmos ad=0.1428p pd=1.52u as=0 ps=0 w=0.42u l=1u
x270 VDD VSS VDD VDD sg13_lv_pmos ad=0.19p pd=1.38u as=0 ps=0 w=1u l=1u
x271 VSS VDD VSS VSS sg13_lv_nmos ad=0.1428p pd=1.52u as=0 ps=0 w=0.42u l=1u
x272 VDD VSS VDD VDD sg13_lv_pmos ad=0.19p pd=1.38u as=0 ps=0 w=1u l=1u
x273 VSS VDD VSS VSS sg13_lv_nmos ad=79.8f pd=0.8u as=0 ps=0 w=0.42u l=1u
x274 VDD VSS VDD VDD sg13_lv_pmos ad=0.34p pd=2.68u as=0 ps=0 w=1u l=1u
x275 VDD VSS VDD VDD sg13_lv_pmos ad=0.34p pd=2.68u as=0 ps=0 w=1u l=1u
x276 VSS VDD VSS VSS sg13_lv_nmos ad=79.8f pd=0.8u as=0 ps=0 w=0.42u l=1u
x277 VDD VSS VDD VDD sg13_lv_pmos ad=0.34p pd=2.68u as=0 ps=0 w=1u l=1u
x278 VSS VDD VSS VSS sg13_lv_nmos ad=0.1428p pd=1.52u as=0 ps=0 w=0.42u l=1u
x279 VDD VSS VDD VDD sg13_lv_pmos ad=0.19p pd=1.38u as=0 ps=0 w=1u l=1u
x280 VSS VDD VSS VSS sg13_lv_nmos ad=79.8f pd=0.8u as=0 ps=0 w=0.42u l=1u
x281 VDD VSS VDD VDD sg13_lv_pmos ad=0.19p pd=1.38u as=0 ps=0 w=1u l=1u
x282 VDD VSS VDD VDD sg13_lv_pmos ad=0.19p pd=1.38u as=0 ps=0 w=1u l=1u
x283 VDD VSS VDD VDD sg13_lv_pmos ad=0.19p pd=1.38u as=0 ps=0 w=1u l=1u
x284 VDD VSS VDD VDD sg13_lv_pmos ad=0.19p pd=1.38u as=0 ps=0 w=1u l=1u
x285 VSS VDD VSS VSS sg13_lv_nmos ad=79.8f pd=0.8u as=0 ps=0 w=0.42u l=1u
x286 VSS VDD VSS VSS sg13_lv_nmos ad=79.8f pd=0.8u as=0 ps=0 w=0.42u l=1u
x287 VDD VSS VDD VDD sg13_lv_pmos ad=0.19p pd=1.38u as=0 ps=0 w=1u l=1u
x288 VSS VDD VSS VSS sg13_lv_nmos ad=79.8f pd=0.8u as=0 ps=0 w=0.42u l=1u
x289 VSS VDD VSS VSS sg13_lv_nmos ad=0.1428p pd=1.52u as=0 ps=0 w=0.42u l=1u
x290 VDD VSS VDD VDD sg13_lv_pmos ad=0.34p pd=2.68u as=0 ps=0 w=1u l=1u
x291 a_14628_16421# a_14340_16000# a_14566_16421# VSS sg13_lv_nmos ad=0.1428p pd=1.52u as=37.8f ps=0.6u w=0.42u l=0.13u
x292 VSS VDD VSS VSS sg13_lv_nmos ad=0.1428p pd=1.52u as=0 ps=0 w=0.42u l=1u
x293 VSS VDD VSS VSS sg13_lv_nmos ad=79.8f pd=0.8u as=0 ps=0 w=0.42u l=1u
x294 VDD VSS VDD VDD sg13_lv_pmos ad=0.19p pd=1.38u as=0 ps=0 w=1u l=1u
x295 VSS VDD VSS VSS sg13_lv_nmos ad=0.1428p pd=1.52u as=0 ps=0 w=0.42u l=1u
x296 VSS VDD VSS VSS sg13_lv_nmos ad=0.1428p pd=1.52u as=0 ps=0 w=0.42u l=1u
x297 VSS VDD VSS VSS sg13_lv_nmos ad=0.1428p pd=1.52u as=0 ps=0 w=0.42u l=1u
x298 VDD VSS VDD VDD sg13_lv_pmos ad=0.19p pd=1.38u as=0 ps=0 w=1u l=1u
x299 VDD VSS VDD VDD sg13_lv_pmos ad=0.34p pd=2.68u as=0 ps=0 w=1u l=1u
x300 VDD VSS VDD VDD sg13_lv_pmos ad=0.34p pd=2.68u as=0 ps=0 w=1u l=1u
x301 VDD VSS VDD VDD sg13_lv_pmos ad=0.19p pd=1.38u as=0 ps=0 w=1u l=1u
x302 VSS VDD VSS VSS sg13_lv_nmos ad=0.1428p pd=1.52u as=0 ps=0 w=0.42u l=1u
x303 VDD VSS VDD VDD sg13_lv_pmos ad=0.34p pd=2.68u as=0 ps=0 w=1u l=1u
x304 VDD VSS VDD VDD sg13_lv_pmos ad=0.34p pd=2.68u as=0 ps=0 w=1u l=1u
x305 VDD VSS VDD VDD sg13_lv_pmos ad=0.19p pd=1.38u as=0 ps=0 w=1u l=1u
x306 VSS VDD VSS VSS sg13_lv_nmos ad=79.8f pd=0.8u as=0 ps=0 w=0.42u l=1u
x307 adc_start a_17128_13760# VDD VDD sg13_lv_pmos ad=0.42p pd=2.99u as=0.2114p ps=1.54u w=1.12u l=0.13u
x308 VDD VSS VDD VDD sg13_lv_pmos ad=0.34p pd=2.68u as=0 ps=0 w=1u l=1u
x309 VDD VSS VDD VDD sg13_lv_pmos ad=0.34p pd=2.68u as=0 ps=0 w=1u l=1u
x310 VSS VDD VSS VSS sg13_lv_nmos ad=79.8f pd=0.8u as=0 ps=0 w=0.42u l=1u
x311 VDD VSS VDD VDD sg13_lv_pmos ad=0.19p pd=1.38u as=0 ps=0 w=1u l=1u
x312 VSS VDD VSS VSS sg13_lv_nmos ad=0.1428p pd=1.52u as=0 ps=0 w=0.42u l=1u
x313 VSS VDD VSS VSS sg13_lv_nmos ad=0.1428p pd=1.52u as=0 ps=0 w=0.42u l=1u
x314 VDD VSS VDD VDD sg13_lv_pmos ad=0.34p pd=2.68u as=0 ps=0 w=1u l=1u
x315 VSS VDD VSS VSS sg13_lv_nmos ad=79.8f pd=0.8u as=0 ps=0 w=0.42u l=1u
x316 VDD VSS VDD VDD sg13_lv_pmos ad=0.19p pd=1.38u as=0 ps=0 w=1u l=1u
x317 VSS VDD VSS VSS sg13_lv_nmos ad=0.1428p pd=1.52u as=0 ps=0 w=0.42u l=1u
x318 VDD VSS VDD VDD sg13_lv_pmos ad=0.34p pd=2.68u as=0 ps=0 w=1u l=1u
x319 VSS VDD VSS VSS sg13_lv_nmos ad=79.8f pd=0.8u as=0 ps=0 w=0.42u l=1u
x320 VDD VSS VDD VDD sg13_lv_pmos ad=0.34p pd=2.68u as=0 ps=0 w=1u l=1u
x321 VDD VSS VDD VDD sg13_lv_pmos ad=0.19p pd=1.38u as=0 ps=0 w=1u l=1u
x322 VSS VDD VSS VSS sg13_lv_nmos ad=79.8f pd=0.8u as=0 ps=0 w=0.42u l=1u
x323 VDD VSS VDD VDD sg13_lv_pmos ad=0.19p pd=1.38u as=0 ps=0 w=1u l=1u
x324 VSS VDD VSS VSS sg13_lv_nmos ad=79.8f pd=0.8u as=0 ps=0 w=0.42u l=1u
x325 VDD VSS VDD VDD sg13_lv_pmos ad=0.34p pd=2.68u as=0 ps=0 w=1u l=1u
x326 VSS VDD VSS VSS sg13_lv_nmos ad=79.8f pd=0.8u as=0 ps=0 w=0.42u l=1u
x327 VDD VSS VDD VDD sg13_lv_pmos ad=0.34p pd=2.68u as=0 ps=0 w=1u l=1u
x328 VSS VDD VSS VSS sg13_lv_nmos ad=79.8f pd=0.8u as=0 ps=0 w=0.42u l=1u
x329 VDD VSS VDD VDD sg13_lv_pmos ad=0.34p pd=2.68u as=0 ps=0 w=1u l=1u
x330 VDD VSS VDD VDD sg13_lv_pmos ad=0.19p pd=1.38u as=0 ps=0 w=1u l=1u
x331 VSS VDD VSS VSS sg13_lv_nmos ad=0.1428p pd=1.52u as=0 ps=0 w=0.42u l=1u
x332 VSS VDD VSS VSS sg13_lv_nmos ad=0.1428p pd=1.52u as=0 ps=0 w=0.42u l=1u
x333 VDD VSS VDD VDD sg13_lv_pmos ad=0.19p pd=1.38u as=0 ps=0 w=1u l=1u
x334 VSS VDD VSS VSS sg13_lv_nmos ad=79.8f pd=0.8u as=0 ps=0 w=0.42u l=1u
x335 VDD VSS VDD VDD sg13_lv_pmos ad=0.34p pd=2.68u as=0 ps=0 w=1u l=1u
x336 VSS VDD VSS VSS sg13_lv_nmos ad=0.1428p pd=1.52u as=0 ps=0 w=0.42u l=1u
x337 VDD VSS VDD VDD sg13_lv_pmos ad=0.19p pd=1.38u as=0 ps=0 w=1u l=1u
x338 VDD VSS VDD VDD sg13_lv_pmos ad=0.19p pd=1.38u as=0 ps=0 w=1u l=1u
x339 VDD VSS VDD VDD sg13_lv_pmos ad=0.19p pd=1.38u as=0 ps=0 w=1u l=1u
x340 VSS VDD VSS VSS sg13_lv_nmos ad=0.1428p pd=1.52u as=0 ps=0 w=0.42u l=1u
x341 a_11748_13722# sg13_a21o_1_0.X a_11654_13722# VSS sg13_lv_nmos ad=60.89999f pd=0.71u as=0.1428p ps=1.52u w=0.42u l=0.13u
x342 VSS VDD VSS VSS sg13_lv_nmos ad=79.8f pd=0.8u as=0 ps=0 w=0.42u l=1u
x343 VDD VSS VDD VDD sg13_lv_pmos ad=0.19p pd=1.38u as=0 ps=0 w=1u l=1u
x344 VDD VSS VDD VDD sg13_lv_pmos ad=0.19p pd=1.38u as=0 ps=0 w=1u l=1u
x345 VSS VDD VSS VSS sg13_lv_nmos ad=0.1428p pd=1.52u as=0 ps=0 w=0.42u l=1u
x346 a_12612_17064# a_12586_16969# VDD VDD sg13_lv_pmos ad=0.34p pd=2.68u as=0.36237p ps=2.605u w=1u l=0.13u
x347 VSS VDD VSS VSS sg13_lv_nmos ad=79.8f pd=0.8u as=0 ps=0 w=0.42u l=1u
x348 VDD VSS VDD VDD sg13_lv_pmos ad=0.19p pd=1.38u as=0 ps=0 w=1u l=1u
x349 VDD VSS VDD VDD sg13_lv_pmos ad=0.19p pd=1.38u as=0 ps=0 w=1u l=1u
x350 VDD VSS VDD VDD sg13_lv_pmos ad=0.34p pd=2.68u as=0 ps=0 w=1u l=1u
x351 VDD VSS VDD VDD sg13_lv_pmos ad=0.19p pd=1.38u as=0 ps=0 w=1u l=1u
x352 VDD VSS VDD VDD sg13_lv_pmos ad=0.19p pd=1.38u as=0 ps=0 w=1u l=1u
x353 VDD VSS VDD VDD sg13_lv_pmos ad=0.19p pd=1.38u as=0 ps=0 w=1u l=1u
x354 VSS VDD VSS VSS sg13_lv_nmos ad=79.8f pd=0.8u as=0 ps=0 w=0.42u l=1u
x355 VSS VDD VSS VSS sg13_lv_nmos ad=79.8f pd=0.8u as=0 ps=0 w=0.42u l=1u
x356 VSS VDD VSS VSS sg13_lv_nmos ad=0.1428p pd=1.52u as=0 ps=0 w=0.42u l=1u
x357 a_12646_14909# sg13_inv_1_0.Y VSS VSS sg13_lv_nmos ad=37.8f pd=0.6u as=0.1701p ps=1.65u w=0.42u l=0.13u
x358 VSS VDD VSS VSS sg13_lv_nmos ad=79.8f pd=0.8u as=0 ps=0 w=0.42u l=1u
x359 VDD VSS VDD VDD sg13_lv_pmos ad=0.19p pd=1.38u as=0 ps=0 w=1u l=1u
x360 VDD VSS VDD VDD sg13_lv_pmos ad=0.19p pd=1.38u as=0 ps=0 w=1u l=1u
x361 VSS VDD VSS VSS sg13_lv_nmos ad=0.1428p pd=1.52u as=0 ps=0 w=0.42u l=1u
x362 a_12297_14113# a_11940_14040# VDD VDD sg13_lv_pmos ad=63f pd=0.72u as=0.1563p ps=1.22u w=0.42u l=0.13u
x363 VDD VSS VDD VDD sg13_lv_pmos ad=0.34p pd=2.68u as=0 ps=0 w=1u l=1u
x364 VDD VSS VDD VDD sg13_lv_pmos ad=0.34p pd=2.68u as=0 ps=0 w=1u l=1u
x365 a_13702_12532# sg13_buf_1_0.A a_13459_12404# VDD sg13_lv_pmos ad=0.2125p pd=1.425u as=0.35p ps=2.7u w=1u l=0.13u
x366 VDD VSS VDD VDD sg13_lv_pmos ad=0.19p pd=1.38u as=0 ps=0 w=1u l=1u
x367 VSS VDD VSS VSS sg13_lv_nmos ad=0.1428p pd=1.52u as=0 ps=0 w=0.42u l=1u
x368 VSS VDD VSS VSS sg13_lv_nmos ad=0.1428p pd=1.52u as=0 ps=0 w=0.42u l=1u
x369 VDD VSS VDD VDD sg13_lv_pmos ad=0.34p pd=2.68u as=0 ps=0 w=1u l=1u
x370 VDD VSS VDD VDD sg13_lv_pmos ad=0.19p pd=1.38u as=0 ps=0 w=1u l=1u
x371 VSS VDD VSS VSS sg13_lv_nmos ad=79.8f pd=0.8u as=0 ps=0 w=0.42u l=1u
x372 VDD VSS VDD VDD sg13_lv_pmos ad=0.34p pd=2.68u as=0 ps=0 w=1u l=1u
x373 VDD VSS VDD VDD sg13_lv_pmos ad=0.34p pd=2.68u as=0 ps=0 w=1u l=1u
x374 VDD VSS VDD VDD sg13_lv_pmos ad=0.34p pd=2.68u as=0 ps=0 w=1u l=1u
x375 VSS VDD VSS VSS sg13_lv_nmos ad=0.1428p pd=1.52u as=0 ps=0 w=0.42u l=1u
x376 VDD VSS VDD VDD sg13_lv_pmos ad=0.19p pd=1.38u as=0 ps=0 w=1u l=1u
x377 VSS VDD VSS VSS sg13_lv_nmos ad=79.8f pd=0.8u as=0 ps=0 w=0.42u l=1u
x378 VSS VDD VSS VSS sg13_lv_nmos ad=0.1428p pd=1.52u as=0 ps=0 w=0.42u l=1u
x379 VDD VSS VDD VDD sg13_lv_pmos ad=0.19p pd=1.38u as=0 ps=0 w=1u l=1u
x380 VSS VDD VSS VSS sg13_lv_nmos ad=0.1428p pd=1.52u as=0 ps=0 w=0.42u l=1u
x381 VDD VSS VDD VDD sg13_lv_pmos ad=0.34p pd=2.68u as=0 ps=0 w=1u l=1u
x382 VDD VSS VDD VDD sg13_lv_pmos ad=0.34p pd=2.68u as=0 ps=0 w=1u l=1u
x383 VDD VSS VDD VDD sg13_lv_pmos ad=0.34p pd=2.68u as=0 ps=0 w=1u l=1u
x384 VSS VDD VSS VSS sg13_lv_nmos ad=79.8f pd=0.8u as=0 ps=0 w=0.42u l=1u
x385 VSS VDD VSS VSS sg13_lv_nmos ad=79.8f pd=0.8u as=0 ps=0 w=0.42u l=1u
x386 VSS VDD VSS VSS sg13_lv_nmos ad=79.8f pd=0.8u as=0 ps=0 w=0.42u l=1u